*Heading
** Radial collapse with truss spokes
**
** --------------------------------------------------
** -- Nodes
** --------------------------------------------------
*NODE, nset=nsetRim
     1,  0.0000E+00, -6.0000E-01,  3.0000E-05
     2,  5.8810E-02, -5.9711E-01,  2.9329E-05
     3,  1.1705E-01, -5.8847E-01,  2.7361E-05
     4,  1.7417E-01, -5.7416E-01,  2.4228E-05
     5,  2.2961E-01, -5.5433E-01,  2.0137E-05
     6,  2.8284E-01, -5.2915E-01,  1.5355E-05
     7,  3.3334E-01, -4.9888E-01,  1.0191E-05
     8,  3.8064E-01, -4.6381E-01,  4.9670E-06
     9,  4.2426E-01, -4.2426E-01,  1.6941E-21
    10,  4.6381E-01, -3.8064E-01, -4.4262E-06
    11,  4.9888E-01, -3.3334E-01, -8.0790E-06
    12,  5.2915E-01, -2.8284E-01, -1.0794E-05
    13,  5.5433E-01, -2.2961E-01, -1.2483E-05
    14,  5.7416E-01, -1.7417E-01, -1.3142E-05
    15,  5.8847E-01, -1.1705E-01, -1.2844E-05
    16,  5.9711E-01, -5.8810E-02, -1.1731E-05
    17,  6.0000E-01, -3.6739E-17, -1.0000E-05
    18,  5.9711E-01,  5.8810E-02, -7.8852E-06
    19,  5.8847E-01,  1.1705E-01, -5.6340E-06
    20,  5.7416E-01,  1.7417E-01, -3.4874E-06
** ... 44 like lines cut
*NSET, nset=nsetSpokeNip
     1
     2
     3
     4
     5
     6
     7
     8
     9
    10
    11
    12
    13
    14
    15
    16
    17
    18
    19
    20
** ... 44 like lines cut
*NODE, nset=nsetSpokes
  1001,  0.0000E+00, -6.0000E-01,  0.0000E+00
  2001,  0.0000E+00, -2.5000E-02,  4.5000E-02
  1002,  0.0000E+00, -6.0000E-01,  0.0000E+00
  2002,  0.0000E+00, -2.5000E-02, -4.5000E-02
  1003,  5.8810E-02, -5.9711E-01,  0.0000E+00
  2003,  2.4504E-03, -2.4880E-02,  4.5000E-02
  1004,  5.8810E-02, -5.9711E-01,  0.0000E+00
  2004,  2.4504E-03, -2.4880E-02, -4.5000E-02
  1005,  1.1705E-01, -5.8847E-01,  0.0000E+00
  2005,  4.8773E-03, -2.4520E-02,  4.5000E-02
  1006,  1.1705E-01, -5.8847E-01,  0.0000E+00
  2006,  4.8773E-03, -2.4520E-02, -4.5000E-02
  1007,  1.7417E-01, -5.7416E-01,  0.0000E+00
  2007,  7.2571E-03, -2.3924E-02,  4.5000E-02
  1008,  1.7417E-01, -5.7416E-01,  0.0000E+00
  2008,  7.2571E-03, -2.3924E-02, -4.5000E-02
  1009,  2.2961E-01, -5.5433E-01,  0.0000E+00
  2009,  9.5671E-03, -2.3097E-02,  4.5000E-02
  1010,  2.2961E-01, -5.5433E-01,  0.0000E+00
  2010,  9.5671E-03, -2.3097E-02, -4.5000E-02
** ... 236 like lines cut
*NSET, nset=nsetHub
 2001
 2002
 2003
 2004
 2005
 2006
 2007
 2008
 2009
 2010
 2011
 2012
 2013
 2014
 2015
 2016
 2017
 2018
 2019
 2020
** ... 108 like lines cut
*NODE, nset=nsetPreT
 99001,  0.0000E+00,  0.0000E+00,  0.0000E+00
 99002,  0.0000E+00,  0.0000E+00,  0.0000E+00
 99003,  0.0000E+00,  0.0000E+00,  0.0000E+00
 99004,  0.0000E+00,  0.0000E+00,  0.0000E+00
 99005,  0.0000E+00,  0.0000E+00,  0.0000E+00
 99006,  0.0000E+00,  0.0000E+00,  0.0000E+00
 99007,  0.0000E+00,  0.0000E+00,  0.0000E+00
 99008,  0.0000E+00,  0.0000E+00,  0.0000E+00
 99009,  0.0000E+00,  0.0000E+00,  0.0000E+00
 99010,  0.0000E+00,  0.0000E+00,  0.0000E+00
 99011,  0.0000E+00,  0.0000E+00,  0.0000E+00
 99012,  0.0000E+00,  0.0000E+00,  0.0000E+00
 99013,  0.0000E+00,  0.0000E+00,  0.0000E+00
 99014,  0.0000E+00,  0.0000E+00,  0.0000E+00
 99015,  0.0000E+00,  0.0000E+00,  0.0000E+00
 99016,  0.0000E+00,  0.0000E+00,  0.0000E+00
 99017,  0.0000E+00,  0.0000E+00,  0.0000E+00
 99018,  0.0000E+00,  0.0000E+00,  0.0000E+00
 99019,  0.0000E+00,  0.0000E+00,  0.0000E+00
 99020,  0.0000E+00,  0.0000E+00,  0.0000E+00
** ... 108 like lines cut
*NSET, nset=nsetRig1
     1
  1001
  1002
*RIGID BODY, ref node=1, tie nset=nsetRig1
*NSET, nset=nsetRig2
     2
  1003
  1004
*RIGID BODY, ref node=2, tie nset=nsetRig2
*NSET, nset=nsetRig3
     3
  1005
  1006
*RIGID BODY, ref node=3, tie nset=nsetRig3
*NSET, nset=nsetRig4
     4
  1007
  1008
*RIGID BODY, ref node=4, tie nset=nsetRig4
*NSET, nset=nsetRig5
     5
  1009
  1010
*RIGID BODY, ref node=5, tie nset=nsetRig5
*NSET, nset=nsetRig6
     6
  1011
  1012
*RIGID BODY, ref node=6, tie nset=nsetRig6
*NSET, nset=nsetRig7
     7
  1013
  1014
*RIGID BODY, ref node=7, tie nset=nsetRig7
*NSET, nset=nsetRig8
     8
  1015
  1016
*RIGID BODY, ref node=8, tie nset=nsetRig8
*NSET, nset=nsetRig9
     9
  1017
  1018
*RIGID BODY, ref node=9, tie nset=nsetRig9
*NSET, nset=nsetRig10
    10
  1019
  1020
*RIGID BODY, ref node=10, tie nset=nsetRig10
*NSET, nset=nsetRig11
    11
  1021
  1022
*RIGID BODY, ref node=11, tie nset=nsetRig11
*NSET, nset=nsetRig12
    12
  1023
  1024
*RIGID BODY, ref node=12, tie nset=nsetRig12
*NSET, nset=nsetRig13
    13
  1025
  1026
*RIGID BODY, ref node=13, tie nset=nsetRig13
*NSET, nset=nsetRig14
    14
  1027
  1028
*RIGID BODY, ref node=14, tie nset=nsetRig14
*NSET, nset=nsetRig15
    15
  1029
  1030
*RIGID BODY, ref node=15, tie nset=nsetRig15
*NSET, nset=nsetRig16
    16
  1031
  1032
*RIGID BODY, ref node=16, tie nset=nsetRig16
*NSET, nset=nsetRig17
    17
  1033
  1034
*RIGID BODY, ref node=17, tie nset=nsetRig17
*NSET, nset=nsetRig18
    18
  1035
  1036
*RIGID BODY, ref node=18, tie nset=nsetRig18
*NSET, nset=nsetRig19
    19
  1037
  1038
*RIGID BODY, ref node=19, tie nset=nsetRig19
*NSET, nset=nsetRig20
    20
  1039
  1040
*RIGID BODY, ref node=20, tie nset=nsetRig20
*NSET, nset=nsetRig21
    21
  1041
  1042
*RIGID BODY, ref node=21, tie nset=nsetRig21
*NSET, nset=nsetRig22
    22
  1043
  1044
*RIGID BODY, ref node=22, tie nset=nsetRig22
*NSET, nset=nsetRig23
    23
  1045
  1046
*RIGID BODY, ref node=23, tie nset=nsetRig23
*NSET, nset=nsetRig24
    24
  1047
  1048
*RIGID BODY, ref node=24, tie nset=nsetRig24
*NSET, nset=nsetRig25
    25
  1049
  1050
*RIGID BODY, ref node=25, tie nset=nsetRig25
*NSET, nset=nsetRig26
    26
  1051
  1052
*RIGID BODY, ref node=26, tie nset=nsetRig26
*NSET, nset=nsetRig27
    27
  1053
  1054
*RIGID BODY, ref node=27, tie nset=nsetRig27
*NSET, nset=nsetRig28
    28
  1055
  1056
*RIGID BODY, ref node=28, tie nset=nsetRig28
*NSET, nset=nsetRig29
    29
  1057
  1058
*RIGID BODY, ref node=29, tie nset=nsetRig29
*NSET, nset=nsetRig30
    30
  1059
  1060
*RIGID BODY, ref node=30, tie nset=nsetRig30
*NSET, nset=nsetRig31
    31
  1061
  1062
*RIGID BODY, ref node=31, tie nset=nsetRig31
*NSET, nset=nsetRig32
    32
  1063
  1064
*RIGID BODY, ref node=32, tie nset=nsetRig32
*NSET, nset=nsetRig33
    33
  1065
  1066
*RIGID BODY, ref node=33, tie nset=nsetRig33
*NSET, nset=nsetRig34
    34
  1067
  1068
*RIGID BODY, ref node=34, tie nset=nsetRig34
*NSET, nset=nsetRig35
    35
  1069
  1070
*RIGID BODY, ref node=35, tie nset=nsetRig35
*NSET, nset=nsetRig36
    36
  1071
  1072
*RIGID BODY, ref node=36, tie nset=nsetRig36
*NSET, nset=nsetRig37
    37
  1073
  1074
*RIGID BODY, ref node=37, tie nset=nsetRig37
*NSET, nset=nsetRig38
    38
  1075
  1076
*RIGID BODY, ref node=38, tie nset=nsetRig38
*NSET, nset=nsetRig39
    39
  1077
  1078
*RIGID BODY, ref node=39, tie nset=nsetRig39
*NSET, nset=nsetRig40
    40
  1079
  1080
*RIGID BODY, ref node=40, tie nset=nsetRig40
*NSET, nset=nsetRig41
    41
  1081
  1082
*RIGID BODY, ref node=41, tie nset=nsetRig41
*NSET, nset=nsetRig42
    42
  1083
  1084
*RIGID BODY, ref node=42, tie nset=nsetRig42
*NSET, nset=nsetRig43
    43
  1085
  1086
*RIGID BODY, ref node=43, tie nset=nsetRig43
*NSET, nset=nsetRig44
    44
  1087
  1088
*RIGID BODY, ref node=44, tie nset=nsetRig44
*NSET, nset=nsetRig45
    45
  1089
  1090
*RIGID BODY, ref node=45, tie nset=nsetRig45
*NSET, nset=nsetRig46
    46
  1091
  1092
*RIGID BODY, ref node=46, tie nset=nsetRig46
*NSET, nset=nsetRig47
    47
  1093
  1094
*RIGID BODY, ref node=47, tie nset=nsetRig47
*NSET, nset=nsetRig48
    48
  1095
  1096
*RIGID BODY, ref node=48, tie nset=nsetRig48
*NSET, nset=nsetRig49
    49
  1097
  1098
*RIGID BODY, ref node=49, tie nset=nsetRig49
*NSET, nset=nsetRig50
    50
  1099
  1100
*RIGID BODY, ref node=50, tie nset=nsetRig50
*NSET, nset=nsetRig51
    51
  1101
  1102
*RIGID BODY, ref node=51, tie nset=nsetRig51
*NSET, nset=nsetRig52
    52
  1103
  1104
*RIGID BODY, ref node=52, tie nset=nsetRig52
*NSET, nset=nsetRig53
    53
  1105
  1106
*RIGID BODY, ref node=53, tie nset=nsetRig53
*NSET, nset=nsetRig54
    54
  1107
  1108
*RIGID BODY, ref node=54, tie nset=nsetRig54
*NSET, nset=nsetRig55
    55
  1109
  1110
*RIGID BODY, ref node=55, tie nset=nsetRig55
*NSET, nset=nsetRig56
    56
  1111
  1112
*RIGID BODY, ref node=56, tie nset=nsetRig56
*NSET, nset=nsetRig57
    57
  1113
  1114
*RIGID BODY, ref node=57, tie nset=nsetRig57
*NSET, nset=nsetRig58
    58
  1115
  1116
*RIGID BODY, ref node=58, tie nset=nsetRig58
*NSET, nset=nsetRig59
    59
  1117
  1118
*RIGID BODY, ref node=59, tie nset=nsetRig59
*NSET, nset=nsetRig60
    60
  1119
  1120
*RIGID BODY, ref node=60, tie nset=nsetRig60
*NSET, nset=nsetRig61
    61
  1121
  1122
*RIGID BODY, ref node=61, tie nset=nsetRig61
*NSET, nset=nsetRig62
    62
  1123
  1124
*RIGID BODY, ref node=62, tie nset=nsetRig62
*NSET, nset=nsetRig63
    63
  1125
  1126
*RIGID BODY, ref node=63, tie nset=nsetRig63
*NSET, nset=nsetRig64
    64
  1127
  1128
*RIGID BODY, ref node=64, tie nset=nsetRig64
** --------------------------------------------------
** -- Elements
** --------------------------------------------------
*ELEMENT, type=B31, elset=elsetRim
     1,     1,     2
    64,    64,     1
*ELGEN, elset=elsetRim
     1,    63
*ELEMENT, type=T3D2, elset=elsetSpokes1
1001, 1001, 2001
*ELEMENT, type=T3D2, elset=elsetSpokes2
1002, 1002, 2002
*ELEMENT, type=T3D2, elset=elsetSpokes1
1003, 1003, 2003
*ELEMENT, type=T3D2, elset=elsetSpokes2
1004, 1004, 2004
*ELEMENT, type=T3D2, elset=elsetSpokes1
1005, 1005, 2005
*ELEMENT, type=T3D2, elset=elsetSpokes2
1006, 1006, 2006
*ELEMENT, type=T3D2, elset=elsetSpokes1
1007, 1007, 2007
*ELEMENT, type=T3D2, elset=elsetSpokes2
1008, 1008, 2008
*ELEMENT, type=T3D2, elset=elsetSpokes1
1009, 1009, 2009
*ELEMENT, type=T3D2, elset=elsetSpokes2
1010, 1010, 2010
*ELEMENT, type=T3D2, elset=elsetSpokes1
1011, 1011, 2011
*ELEMENT, type=T3D2, elset=elsetSpokes2
1012, 1012, 2012
*ELEMENT, type=T3D2, elset=elsetSpokes1
1013, 1013, 2013
*ELEMENT, type=T3D2, elset=elsetSpokes2
1014, 1014, 2014
*ELEMENT, type=T3D2, elset=elsetSpokes1
1015, 1015, 2015
*ELEMENT, type=T3D2, elset=elsetSpokes2
1016, 1016, 2016
*ELEMENT, type=T3D2, elset=elsetSpokes1
1017, 1017, 2017
*ELEMENT, type=T3D2, elset=elsetSpokes2
1018, 1018, 2018
*ELEMENT, type=T3D2, elset=elsetSpokes1
1019, 1019, 2019
*ELEMENT, type=T3D2, elset=elsetSpokes2
** ... 217 like lines cut
*ELSET, elset=elsetSpokes
elsetSpokes1, elsetSpokes2
*ELSET, elset=elsetSpokesRef, generate
 1001, 1128, 1
** --------------------------------------------------
** -- Sections
** --------------------------------------------------
*PRE-TENSION SECTION, node=99001, element=1001
*PRE-TENSION SECTION, node=99002, element=1002
*PRE-TENSION SECTION, node=99003, element=1003
*PRE-TENSION SECTION, node=99004, element=1004
*PRE-TENSION SECTION, node=99005, element=1005
*PRE-TENSION SECTION, node=99006, element=1006
*PRE-TENSION SECTION, node=99007, element=1007
*PRE-TENSION SECTION, node=99008, element=1008
*PRE-TENSION SECTION, node=99009, element=1009
*PRE-TENSION SECTION, node=99010, element=1010
*PRE-TENSION SECTION, node=99011, element=1011
*PRE-TENSION SECTION, node=99012, element=1012
*PRE-TENSION SECTION, node=99013, element=1013
*PRE-TENSION SECTION, node=99014, element=1014
*PRE-TENSION SECTION, node=99015, element=1015
*PRE-TENSION SECTION, node=99016, element=1016
*PRE-TENSION SECTION, node=99017, element=1017
*PRE-TENSION SECTION, node=99018, element=1018
*PRE-TENSION SECTION, node=99019, element=1019
*PRE-TENSION SECTION, node=99020, element=1020
** ... 108 like lines cut
*SOLID SECTION, elset=elsetSpokes, material=steel1
1.570796e-06
*MATERIAL, name=steel1
*ELASTIC
 2.100000e+11, 0.33
*DENSITY
 8050.0
*DAMPING, alpha=1.000000e+03
*EXPANSION, type=iso
 1.000000e+00
*MATERIAL, name=steel2
*ELASTIC
 2.100000e+11, 0.33
*DENSITY
 8050.0
*DAMPING, alpha=1.000000e+03
*EXPANSION, type=iso
 1.000000e+00
*BEAM GENERAL SECTION, elset=elsetRim, section=GENERAL, density=2700.0
1.0000E-04, 4.3478E-09, 0., 4.3478E-09, 3.8462E-09, 0.0000E+00, 0.0000E+00
0.,0.,-1.
6.9000e+10,    2.6e+10
** --------------------------------------------------
** -- Boundary conditions
** --------------------------------------------------
*BOUNDARY
 nsetHub, ENCASTRE
** --------------------------------------------------
** -- Pre-load spokes
** --------------------------------------------------
*STEP, name=preT, nlgeom=YES
*STATIC
1., 1., 1e-05, 1.
*CLOAD
 99001, 1, 1.019540e+02
 99002, 1, 1.019540e+02
 99003, 1, 1.019540e+02
 99004, 1, 1.019540e+02
 99005, 1, 1.019540e+02
 99006, 1, 1.019540e+02
 99007, 1, 1.019540e+02
 99008, 1, 1.019540e+02
 99009, 1, 1.019540e+02
 99010, 1, 1.019540e+02
 99011, 1, 1.019540e+02
 99012, 1, 1.019540e+02
 99013, 1, 1.019540e+02
 99014, 1, 1.019540e+02
 99015, 1, 1.019540e+02
 99016, 1, 1.019540e+02
 99017, 1, 1.019540e+02
 99018, 1, 1.019540e+02
 99019, 1, 1.019540e+02
 99020, 1, 1.019540e+02
** ... 108 like lines cut
*OUTPUT, field, variable=PRESELECT
*ELEMENT OUTPUT, elset=elsetSpokes
SF
*ELEMENT OUTPUT, elset=elsetRim
SF
*RESTART, write, number interval=1
*END STEP
