*Heading
** Radial collapse with truss spokes
**
** --------------------------------------------------
** -- Nodes
** --------------------------------------------------
*NODE, nset=nsetRim
     1,  0.0000E+00, -3.0100E-01,  3.0000E-05
     2,  1.9686E-02, -3.0036E-01,  2.9701E-05
     3,  3.9288E-02, -2.9842E-01,  2.8813E-05
     4,  5.8722E-02, -2.9522E-01,  2.7361E-05
     5,  7.7905E-02, -2.9074E-01,  2.5391E-05
     6,  9.6753E-02, -2.8503E-01,  2.2959E-05
     7,  1.1519E-01, -2.7809E-01,  2.0137E-05
     8,  1.3313E-01, -2.6996E-01,  1.7007E-05
     9,  1.5050E-01, -2.6067E-01,  1.3660E-05
    10,  1.6723E-01, -2.5027E-01,  1.0191E-05
    11,  1.8324E-01, -2.3880E-01,  6.6949E-06
    12,  1.9846E-01, -2.2630E-01,  3.2680E-06
    13,  2.1284E-01, -2.1284E-01,  1.6941E-21
    14,  2.2630E-01, -1.9846E-01, -3.0265E-06
    15,  2.3880E-01, -1.8324E-01, -5.7394E-06
    16,  2.5027E-01, -1.6723E-01, -8.0790E-06
    17,  2.6067E-01, -1.5050E-01, -1.0000E-05
    18,  2.6996E-01, -1.3313E-01, -1.1473E-05
    19,  2.7809E-01, -1.1519E-01, -1.2483E-05
    20,  2.8503E-01, -9.6753E-02, -1.3034E-05
** ... 76 like lines cut
*NSET, nset=nsetSpokeNip
     1
     3
     5
     7
     9
    11
    13
    15
    17
    19
    21
    23
    25
    27
    29
    31
    33
    35
    37
    39
** ... 28 like lines cut
*NODE, nset=nsetSpokes
  1001,  0.0000E+00, -3.0100E-01,  0.0000E+00
  2001,  0.0000E+00, -2.0000E-02,  3.5000E-02
  1002,  0.0000E+00, -3.0100E-01,  0.0000E+00
  2002,  0.0000E+00, -2.0000E-02, -3.5000E-02
  1003,  3.9288E-02, -2.9842E-01,  0.0000E+00
  2003,  2.6105E-03, -1.9829E-02,  3.5000E-02
  1004,  3.9288E-02, -2.9842E-01,  0.0000E+00
  2004,  2.6105E-03, -1.9829E-02, -3.5000E-02
  1005,  7.7905E-02, -2.9074E-01,  0.0000E+00
  2005,  5.1764E-03, -1.9319E-02,  3.5000E-02
  1006,  7.7905E-02, -2.9074E-01,  0.0000E+00
  2006,  5.1764E-03, -1.9319E-02, -3.5000E-02
  1007,  1.1519E-01, -2.7809E-01,  0.0000E+00
  2007,  7.6537E-03, -1.8478E-02,  3.5000E-02
  1008,  1.1519E-01, -2.7809E-01,  0.0000E+00
  2008,  7.6537E-03, -1.8478E-02, -3.5000E-02
  1009,  1.5050E-01, -2.6067E-01,  0.0000E+00
  2009,  1.0000E-02, -1.7321E-02,  3.5000E-02
  1010,  1.5050E-01, -2.6067E-01,  0.0000E+00
  2010,  1.0000E-02, -1.7321E-02, -3.5000E-02
** ... 172 like lines cut
*NSET, nset=nsetHub
 2001
 2002
 2003
 2004
 2005
 2006
 2007
 2008
 2009
 2010
 2011
 2012
 2013
 2014
 2015
 2016
 2017
 2018
 2019
 2020
** ... 76 like lines cut
*NODE, nset=nsetPreT
 99001,  0.0000E+00,  0.0000E+00,  0.0000E+00
 99002,  0.0000E+00,  0.0000E+00,  0.0000E+00
 99003,  0.0000E+00,  0.0000E+00,  0.0000E+00
 99004,  0.0000E+00,  0.0000E+00,  0.0000E+00
 99005,  0.0000E+00,  0.0000E+00,  0.0000E+00
 99006,  0.0000E+00,  0.0000E+00,  0.0000E+00
 99007,  0.0000E+00,  0.0000E+00,  0.0000E+00
 99008,  0.0000E+00,  0.0000E+00,  0.0000E+00
 99009,  0.0000E+00,  0.0000E+00,  0.0000E+00
 99010,  0.0000E+00,  0.0000E+00,  0.0000E+00
 99011,  0.0000E+00,  0.0000E+00,  0.0000E+00
 99012,  0.0000E+00,  0.0000E+00,  0.0000E+00
 99013,  0.0000E+00,  0.0000E+00,  0.0000E+00
 99014,  0.0000E+00,  0.0000E+00,  0.0000E+00
 99015,  0.0000E+00,  0.0000E+00,  0.0000E+00
 99016,  0.0000E+00,  0.0000E+00,  0.0000E+00
 99017,  0.0000E+00,  0.0000E+00,  0.0000E+00
 99018,  0.0000E+00,  0.0000E+00,  0.0000E+00
 99019,  0.0000E+00,  0.0000E+00,  0.0000E+00
 99020,  0.0000E+00,  0.0000E+00,  0.0000E+00
** ... 76 like lines cut
*NSET, nset=nsetRig1
     1
  1001
  1002
*RIGID BODY, ref node=1, tie nset=nsetRig1
*NSET, nset=nsetRig3
     3
  1003
  1004
*RIGID BODY, ref node=3, tie nset=nsetRig3
*NSET, nset=nsetRig5
     5
  1005
  1006
*RIGID BODY, ref node=5, tie nset=nsetRig5
*NSET, nset=nsetRig7
     7
  1007
  1008
*RIGID BODY, ref node=7, tie nset=nsetRig7
*NSET, nset=nsetRig9
     9
  1009
  1010
*RIGID BODY, ref node=9, tie nset=nsetRig9
*NSET, nset=nsetRig11
    11
  1011
  1012
*RIGID BODY, ref node=11, tie nset=nsetRig11
*NSET, nset=nsetRig13
    13
  1013
  1014
*RIGID BODY, ref node=13, tie nset=nsetRig13
*NSET, nset=nsetRig15
    15
  1015
  1016
*RIGID BODY, ref node=15, tie nset=nsetRig15
*NSET, nset=nsetRig17
    17
  1017
  1018
*RIGID BODY, ref node=17, tie nset=nsetRig17
*NSET, nset=nsetRig19
    19
  1019
  1020
*RIGID BODY, ref node=19, tie nset=nsetRig19
*NSET, nset=nsetRig21
    21
  1021
  1022
*RIGID BODY, ref node=21, tie nset=nsetRig21
*NSET, nset=nsetRig23
    23
  1023
  1024
*RIGID BODY, ref node=23, tie nset=nsetRig23
*NSET, nset=nsetRig25
    25
  1025
  1026
*RIGID BODY, ref node=25, tie nset=nsetRig25
*NSET, nset=nsetRig27
    27
  1027
  1028
*RIGID BODY, ref node=27, tie nset=nsetRig27
*NSET, nset=nsetRig29
    29
  1029
  1030
*RIGID BODY, ref node=29, tie nset=nsetRig29
*NSET, nset=nsetRig31
    31
  1031
  1032
*RIGID BODY, ref node=31, tie nset=nsetRig31
*NSET, nset=nsetRig33
    33
  1033
  1034
*RIGID BODY, ref node=33, tie nset=nsetRig33
*NSET, nset=nsetRig35
    35
  1035
  1036
*RIGID BODY, ref node=35, tie nset=nsetRig35
*NSET, nset=nsetRig37
    37
  1037
  1038
*RIGID BODY, ref node=37, tie nset=nsetRig37
*NSET, nset=nsetRig39
    39
  1039
  1040
*RIGID BODY, ref node=39, tie nset=nsetRig39
*NSET, nset=nsetRig41
    41
  1041
  1042
*RIGID BODY, ref node=41, tie nset=nsetRig41
*NSET, nset=nsetRig43
    43
  1043
  1044
*RIGID BODY, ref node=43, tie nset=nsetRig43
*NSET, nset=nsetRig45
    45
  1045
  1046
*RIGID BODY, ref node=45, tie nset=nsetRig45
*NSET, nset=nsetRig47
    47
  1047
  1048
*RIGID BODY, ref node=47, tie nset=nsetRig47
*NSET, nset=nsetRig49
    49
  1049
  1050
*RIGID BODY, ref node=49, tie nset=nsetRig49
*NSET, nset=nsetRig51
    51
  1051
  1052
*RIGID BODY, ref node=51, tie nset=nsetRig51
*NSET, nset=nsetRig53
    53
  1053
  1054
*RIGID BODY, ref node=53, tie nset=nsetRig53
*NSET, nset=nsetRig55
    55
  1055
  1056
*RIGID BODY, ref node=55, tie nset=nsetRig55
*NSET, nset=nsetRig57
    57
  1057
  1058
*RIGID BODY, ref node=57, tie nset=nsetRig57
*NSET, nset=nsetRig59
    59
  1059
  1060
*RIGID BODY, ref node=59, tie nset=nsetRig59
*NSET, nset=nsetRig61
    61
  1061
  1062
*RIGID BODY, ref node=61, tie nset=nsetRig61
*NSET, nset=nsetRig63
    63
  1063
  1064
*RIGID BODY, ref node=63, tie nset=nsetRig63
*NSET, nset=nsetRig65
    65
  1065
  1066
*RIGID BODY, ref node=65, tie nset=nsetRig65
*NSET, nset=nsetRig67
    67
  1067
  1068
*RIGID BODY, ref node=67, tie nset=nsetRig67
*NSET, nset=nsetRig69
    69
  1069
  1070
*RIGID BODY, ref node=69, tie nset=nsetRig69
*NSET, nset=nsetRig71
    71
  1071
  1072
*RIGID BODY, ref node=71, tie nset=nsetRig71
*NSET, nset=nsetRig73
    73
  1073
  1074
*RIGID BODY, ref node=73, tie nset=nsetRig73
*NSET, nset=nsetRig75
    75
  1075
  1076
*RIGID BODY, ref node=75, tie nset=nsetRig75
*NSET, nset=nsetRig77
    77
  1077
  1078
*RIGID BODY, ref node=77, tie nset=nsetRig77
*NSET, nset=nsetRig79
    79
  1079
  1080
*RIGID BODY, ref node=79, tie nset=nsetRig79
*NSET, nset=nsetRig81
    81
  1081
  1082
*RIGID BODY, ref node=81, tie nset=nsetRig81
*NSET, nset=nsetRig83
    83
  1083
  1084
*RIGID BODY, ref node=83, tie nset=nsetRig83
*NSET, nset=nsetRig85
    85
  1085
  1086
*RIGID BODY, ref node=85, tie nset=nsetRig85
*NSET, nset=nsetRig87
    87
  1087
  1088
*RIGID BODY, ref node=87, tie nset=nsetRig87
*NSET, nset=nsetRig89
    89
  1089
  1090
*RIGID BODY, ref node=89, tie nset=nsetRig89
*NSET, nset=nsetRig91
    91
  1091
  1092
*RIGID BODY, ref node=91, tie nset=nsetRig91
*NSET, nset=nsetRig93
    93
  1093
  1094
*RIGID BODY, ref node=93, tie nset=nsetRig93
*NSET, nset=nsetRig95
    95
  1095
  1096
*RIGID BODY, ref node=95, tie nset=nsetRig95
** --------------------------------------------------
** -- Elements
** --------------------------------------------------
*ELEMENT, type=B31, elset=elsetRim
     1,     1,     2
    96,    96,     1
*ELGEN, elset=elsetRim
     1,    95
*ELEMENT, type=T3D2, elset=elsetSpokes1
1001, 1001, 2001
*ELEMENT, type=T3D2, elset=elsetSpokes2
1002, 1002, 2002
*ELEMENT, type=T3D2, elset=elsetSpokes1
1003, 1003, 2003
*ELEMENT, type=T3D2, elset=elsetSpokes2
1004, 1004, 2004
*ELEMENT, type=T3D2, elset=elsetSpokes1
1005, 1005, 2005
*ELEMENT, type=T3D2, elset=elsetSpokes2
1006, 1006, 2006
*ELEMENT, type=T3D2, elset=elsetSpokes1
1007, 1007, 2007
*ELEMENT, type=T3D2, elset=elsetSpokes2
1008, 1008, 2008
*ELEMENT, type=T3D2, elset=elsetSpokes1
1009, 1009, 2009
*ELEMENT, type=T3D2, elset=elsetSpokes2
1010, 1010, 2010
*ELEMENT, type=T3D2, elset=elsetSpokes1
1011, 1011, 2011
*ELEMENT, type=T3D2, elset=elsetSpokes2
1012, 1012, 2012
*ELEMENT, type=T3D2, elset=elsetSpokes1
1013, 1013, 2013
*ELEMENT, type=T3D2, elset=elsetSpokes2
1014, 1014, 2014
*ELEMENT, type=T3D2, elset=elsetSpokes1
1015, 1015, 2015
*ELEMENT, type=T3D2, elset=elsetSpokes2
1016, 1016, 2016
*ELEMENT, type=T3D2, elset=elsetSpokes1
1017, 1017, 2017
*ELEMENT, type=T3D2, elset=elsetSpokes2
1018, 1018, 2018
*ELEMENT, type=T3D2, elset=elsetSpokes1
1019, 1019, 2019
*ELEMENT, type=T3D2, elset=elsetSpokes2
** ... 153 like lines cut
*ELSET, elset=elsetSpokes
elsetSpokes1, elsetSpokes2
*ELSET, elset=elsetSpokesRef, generate
 1001, 1096, 1
** --------------------------------------------------
** -- Sections
** --------------------------------------------------
*PRE-TENSION SECTION, node=99001, element=1001
*PRE-TENSION SECTION, node=99002, element=1002
*PRE-TENSION SECTION, node=99003, element=1003
*PRE-TENSION SECTION, node=99004, element=1004
*PRE-TENSION SECTION, node=99005, element=1005
*PRE-TENSION SECTION, node=99006, element=1006
*PRE-TENSION SECTION, node=99007, element=1007
*PRE-TENSION SECTION, node=99008, element=1008
*PRE-TENSION SECTION, node=99009, element=1009
*PRE-TENSION SECTION, node=99010, element=1010
*PRE-TENSION SECTION, node=99011, element=1011
*PRE-TENSION SECTION, node=99012, element=1012
*PRE-TENSION SECTION, node=99013, element=1013
*PRE-TENSION SECTION, node=99014, element=1014
*PRE-TENSION SECTION, node=99015, element=1015
*PRE-TENSION SECTION, node=99016, element=1016
*PRE-TENSION SECTION, node=99017, element=1017
*PRE-TENSION SECTION, node=99018, element=1018
*PRE-TENSION SECTION, node=99019, element=1019
*PRE-TENSION SECTION, node=99020, element=1020
** ... 76 like lines cut
*SOLID SECTION, elset=elsetSpokes, material=steel1
1.570796e-06
*MATERIAL, name=steel1
*ELASTIC
 2.100000e+11, 0.33
*DENSITY
 8050.0
*DAMPING, alpha=1.000000e+03
*EXPANSION, type=iso
 1.000000e+00
*MATERIAL, name=steel2
*ELASTIC
 2.100000e+11, 0.33
*DENSITY
 8050.0
*DAMPING, alpha=1.000000e+03
*EXPANSION, type=iso
 1.000000e+00
*BEAM GENERAL SECTION, elset=elsetRim, section=GENERAL, density=2700.0
1.0000E-04, 2.8986E-09, 0., 2.8986E-09, 3.0769E-09, 0.0000E+00, 0.0000E+00
0.,0.,-1.
6.9000e+10,    2.6e+10
** --------------------------------------------------
** -- Boundary conditions
** --------------------------------------------------
*BOUNDARY
 nsetHub, ENCASTRE
** --------------------------------------------------
** -- Pre-load spokes
** --------------------------------------------------
*STEP, name=preT, nlgeom=YES
*STATIC
1., 1., 1e-05, 1.
*CLOAD
 99001, 1, 1.433459e+03
 99002, 1, 1.433459e+03
 99003, 1, 1.433459e+03
 99004, 1, 1.433459e+03
 99005, 1, 1.433459e+03
 99006, 1, 1.433459e+03
 99007, 1, 1.433459e+03
 99008, 1, 1.433459e+03
 99009, 1, 1.433459e+03
 99010, 1, 1.433459e+03
 99011, 1, 1.433459e+03
 99012, 1, 1.433459e+03
 99013, 1, 1.433459e+03
 99014, 1, 1.433459e+03
 99015, 1, 1.433459e+03
 99016, 1, 1.433459e+03
 99017, 1, 1.433459e+03
 99018, 1, 1.433459e+03
 99019, 1, 1.433459e+03
 99020, 1, 1.433459e+03
** ... 76 like lines cut
*OUTPUT, field, variable=PRESELECT
*ELEMENT OUTPUT, elset=elsetSpokes
SF
*ELEMENT OUTPUT, elset=elsetRim
SF
*RESTART, write, number interval=1
*END STEP
