*Heading
** Tension buckling with beam spokes
**
** --------------------------------------------------
** -- Nodes
** --------------------------------------------------
*NODE, nset=nsetRim
     1,  0.0000E+00, -3.0000E-01,  0.0000E+00
     2,  2.6147E-02, -2.9886E-01,  0.0000E+00
     3,  5.2094E-02, -2.9544E-01,  0.0000E+00
     4,  7.7646E-02, -2.8978E-01,  0.0000E+00
     5,  1.0261E-01, -2.8191E-01,  0.0000E+00
     6,  1.2679E-01, -2.7189E-01,  0.0000E+00
     7,  1.5000E-01, -2.5981E-01,  0.0000E+00
     8,  1.7207E-01, -2.4575E-01,  0.0000E+00
     9,  1.9284E-01, -2.2981E-01,  0.0000E+00
    10,  2.1213E-01, -2.1213E-01,  0.0000E+00
    11,  2.2981E-01, -1.9284E-01,  0.0000E+00
    12,  2.4575E-01, -1.7207E-01,  0.0000E+00
    13,  2.5981E-01, -1.5000E-01,  0.0000E+00
    14,  2.7189E-01, -1.2679E-01,  0.0000E+00
    15,  2.8191E-01, -1.0261E-01,  0.0000E+00
    16,  2.8978E-01, -7.7646E-02,  0.0000E+00
    17,  2.9544E-01, -5.2094E-02,  0.0000E+00
    18,  2.9886E-01, -2.6147E-02,  0.0000E+00
    19,  3.0000E-01, -1.8370E-17,  0.0000E+00
    20,  2.9886E-01,  2.6147E-02,  0.0000E+00
** ... 52 like lines cut
*NSET, nset=nsetSpokeNip
     1
     2
     3
     4
     5
     6
     7
     8
     9
    10
    11
    12
    13
    14
    15
    16
    17
    18
    19
    20
** ... 52 like lines cut
*NODE, nset=nsetSpokes
  1001,  0.0000E+00, -3.0000E-01, -1.0000E-02
  2001,  0.0000E+00, -2.7250E-01, -6.5000E-03
  3001,  0.0000E+00, -2.4500E-01, -3.0000E-03
  4001,  0.0000E+00, -2.1750E-01,  5.0000E-04
  5001,  0.0000E+00, -1.9000E-01,  4.0000E-03
  6001,  0.0000E+00, -1.6250E-01,  7.5000E-03
  7001,  0.0000E+00, -1.3500E-01,  1.1000E-02
  8001,  0.0000E+00, -1.0750E-01,  1.4500E-02
  9001,  0.0000E+00, -8.0000E-02,  1.8000E-02
 10001,  0.0000E+00, -5.2500E-02,  2.1500E-02
 11001,  0.0000E+00, -2.5000E-02,  2.5000E-02
  1002,  2.6147E-02, -2.9886E-01,  1.0000E-02
  2002,  2.3750E-02, -2.7146E-01,  6.5000E-03
  3002,  2.1353E-02, -2.4407E-01,  3.0000E-03
  4002,  1.8956E-02, -2.1667E-01, -5.0000E-04
  5002,  1.6560E-02, -1.8928E-01, -4.0000E-03
  6002,  1.4163E-02, -1.6188E-01, -7.5000E-03
  7002,  1.1766E-02, -1.3449E-01, -1.1000E-02
  8002,  9.3692E-03, -1.0709E-01, -1.4500E-02
  9002,  6.9725E-03, -7.9696E-02, -1.8000E-02
** ... 772 like lines cut
*NSET, nset=nsetHub
 11001
 11002
 11003
 11004
 11005
 11006
 11007
 11008
 11009
 11010
 11011
 11012
 11013
 11014
 11015
 11016
 11017
 11018
 11019
 11020
** ... 52 like lines cut
*NODE, nset=nsetPreT
 99001,  0.0000E+00,  0.0000E+00,  0.0000E+00
 99002,  0.0000E+00,  0.0000E+00,  0.0000E+00
 99003,  0.0000E+00,  0.0000E+00,  0.0000E+00
 99004,  0.0000E+00,  0.0000E+00,  0.0000E+00
 99005,  0.0000E+00,  0.0000E+00,  0.0000E+00
 99006,  0.0000E+00,  0.0000E+00,  0.0000E+00
 99007,  0.0000E+00,  0.0000E+00,  0.0000E+00
 99008,  0.0000E+00,  0.0000E+00,  0.0000E+00
 99009,  0.0000E+00,  0.0000E+00,  0.0000E+00
 99010,  0.0000E+00,  0.0000E+00,  0.0000E+00
 99011,  0.0000E+00,  0.0000E+00,  0.0000E+00
 99012,  0.0000E+00,  0.0000E+00,  0.0000E+00
 99013,  0.0000E+00,  0.0000E+00,  0.0000E+00
 99014,  0.0000E+00,  0.0000E+00,  0.0000E+00
 99015,  0.0000E+00,  0.0000E+00,  0.0000E+00
 99016,  0.0000E+00,  0.0000E+00,  0.0000E+00
 99017,  0.0000E+00,  0.0000E+00,  0.0000E+00
 99018,  0.0000E+00,  0.0000E+00,  0.0000E+00
 99019,  0.0000E+00,  0.0000E+00,  0.0000E+00
 99020,  0.0000E+00,  0.0000E+00,  0.0000E+00
** ... 52 like lines cut
*NSET, nset=nsetRig1
     1
  1001
*RIGID BODY, ref node=1, tie nset=nsetRig1
*NSET, nset=nsetRig2
     2
  1002
*RIGID BODY, ref node=2, tie nset=nsetRig2
*NSET, nset=nsetRig3
     3
  1003
*RIGID BODY, ref node=3, tie nset=nsetRig3
*NSET, nset=nsetRig4
     4
  1004
*RIGID BODY, ref node=4, tie nset=nsetRig4
*NSET, nset=nsetRig5
     5
  1005
*RIGID BODY, ref node=5, tie nset=nsetRig5
*NSET, nset=nsetRig6
     6
  1006
*RIGID BODY, ref node=6, tie nset=nsetRig6
*NSET, nset=nsetRig7
     7
  1007
*RIGID BODY, ref node=7, tie nset=nsetRig7
*NSET, nset=nsetRig8
     8
  1008
*RIGID BODY, ref node=8, tie nset=nsetRig8
*NSET, nset=nsetRig9
     9
  1009
*RIGID BODY, ref node=9, tie nset=nsetRig9
*NSET, nset=nsetRig10
    10
  1010
*RIGID BODY, ref node=10, tie nset=nsetRig10
*NSET, nset=nsetRig11
    11
  1011
*RIGID BODY, ref node=11, tie nset=nsetRig11
*NSET, nset=nsetRig12
    12
  1012
*RIGID BODY, ref node=12, tie nset=nsetRig12
*NSET, nset=nsetRig13
    13
  1013
*RIGID BODY, ref node=13, tie nset=nsetRig13
*NSET, nset=nsetRig14
    14
  1014
*RIGID BODY, ref node=14, tie nset=nsetRig14
*NSET, nset=nsetRig15
    15
  1015
*RIGID BODY, ref node=15, tie nset=nsetRig15
*NSET, nset=nsetRig16
    16
  1016
*RIGID BODY, ref node=16, tie nset=nsetRig16
*NSET, nset=nsetRig17
    17
  1017
*RIGID BODY, ref node=17, tie nset=nsetRig17
*NSET, nset=nsetRig18
    18
  1018
*RIGID BODY, ref node=18, tie nset=nsetRig18
*NSET, nset=nsetRig19
    19
  1019
*RIGID BODY, ref node=19, tie nset=nsetRig19
*NSET, nset=nsetRig20
    20
  1020
*RIGID BODY, ref node=20, tie nset=nsetRig20
*NSET, nset=nsetRig21
    21
  1021
*RIGID BODY, ref node=21, tie nset=nsetRig21
*NSET, nset=nsetRig22
    22
  1022
*RIGID BODY, ref node=22, tie nset=nsetRig22
*NSET, nset=nsetRig23
    23
  1023
*RIGID BODY, ref node=23, tie nset=nsetRig23
*NSET, nset=nsetRig24
    24
  1024
*RIGID BODY, ref node=24, tie nset=nsetRig24
*NSET, nset=nsetRig25
    25
  1025
*RIGID BODY, ref node=25, tie nset=nsetRig25
*NSET, nset=nsetRig26
    26
  1026
*RIGID BODY, ref node=26, tie nset=nsetRig26
*NSET, nset=nsetRig27
    27
  1027
*RIGID BODY, ref node=27, tie nset=nsetRig27
*NSET, nset=nsetRig28
    28
  1028
*RIGID BODY, ref node=28, tie nset=nsetRig28
*NSET, nset=nsetRig29
    29
  1029
*RIGID BODY, ref node=29, tie nset=nsetRig29
*NSET, nset=nsetRig30
    30
  1030
*RIGID BODY, ref node=30, tie nset=nsetRig30
*NSET, nset=nsetRig31
    31
  1031
*RIGID BODY, ref node=31, tie nset=nsetRig31
*NSET, nset=nsetRig32
    32
  1032
*RIGID BODY, ref node=32, tie nset=nsetRig32
*NSET, nset=nsetRig33
    33
  1033
*RIGID BODY, ref node=33, tie nset=nsetRig33
*NSET, nset=nsetRig34
    34
  1034
*RIGID BODY, ref node=34, tie nset=nsetRig34
*NSET, nset=nsetRig35
    35
  1035
*RIGID BODY, ref node=35, tie nset=nsetRig35
*NSET, nset=nsetRig36
    36
  1036
*RIGID BODY, ref node=36, tie nset=nsetRig36
*NSET, nset=nsetRig37
    37
  1037
*RIGID BODY, ref node=37, tie nset=nsetRig37
*NSET, nset=nsetRig38
    38
  1038
*RIGID BODY, ref node=38, tie nset=nsetRig38
*NSET, nset=nsetRig39
    39
  1039
*RIGID BODY, ref node=39, tie nset=nsetRig39
*NSET, nset=nsetRig40
    40
  1040
*RIGID BODY, ref node=40, tie nset=nsetRig40
*NSET, nset=nsetRig41
    41
  1041
*RIGID BODY, ref node=41, tie nset=nsetRig41
*NSET, nset=nsetRig42
    42
  1042
*RIGID BODY, ref node=42, tie nset=nsetRig42
*NSET, nset=nsetRig43
    43
  1043
*RIGID BODY, ref node=43, tie nset=nsetRig43
*NSET, nset=nsetRig44
    44
  1044
*RIGID BODY, ref node=44, tie nset=nsetRig44
*NSET, nset=nsetRig45
    45
  1045
*RIGID BODY, ref node=45, tie nset=nsetRig45
*NSET, nset=nsetRig46
    46
  1046
*RIGID BODY, ref node=46, tie nset=nsetRig46
*NSET, nset=nsetRig47
    47
  1047
*RIGID BODY, ref node=47, tie nset=nsetRig47
*NSET, nset=nsetRig48
    48
  1048
*RIGID BODY, ref node=48, tie nset=nsetRig48
*NSET, nset=nsetRig49
    49
  1049
*RIGID BODY, ref node=49, tie nset=nsetRig49
*NSET, nset=nsetRig50
    50
  1050
*RIGID BODY, ref node=50, tie nset=nsetRig50
*NSET, nset=nsetRig51
    51
  1051
*RIGID BODY, ref node=51, tie nset=nsetRig51
*NSET, nset=nsetRig52
    52
  1052
*RIGID BODY, ref node=52, tie nset=nsetRig52
*NSET, nset=nsetRig53
    53
  1053
*RIGID BODY, ref node=53, tie nset=nsetRig53
*NSET, nset=nsetRig54
    54
  1054
*RIGID BODY, ref node=54, tie nset=nsetRig54
*NSET, nset=nsetRig55
    55
  1055
*RIGID BODY, ref node=55, tie nset=nsetRig55
*NSET, nset=nsetRig56
    56
  1056
*RIGID BODY, ref node=56, tie nset=nsetRig56
*NSET, nset=nsetRig57
    57
  1057
*RIGID BODY, ref node=57, tie nset=nsetRig57
*NSET, nset=nsetRig58
    58
  1058
*RIGID BODY, ref node=58, tie nset=nsetRig58
*NSET, nset=nsetRig59
    59
  1059
*RIGID BODY, ref node=59, tie nset=nsetRig59
*NSET, nset=nsetRig60
    60
  1060
*RIGID BODY, ref node=60, tie nset=nsetRig60
*NSET, nset=nsetRig61
    61
  1061
*RIGID BODY, ref node=61, tie nset=nsetRig61
*NSET, nset=nsetRig62
    62
  1062
*RIGID BODY, ref node=62, tie nset=nsetRig62
*NSET, nset=nsetRig63
    63
  1063
*RIGID BODY, ref node=63, tie nset=nsetRig63
*NSET, nset=nsetRig64
    64
  1064
*RIGID BODY, ref node=64, tie nset=nsetRig64
*NSET, nset=nsetRig65
    65
  1065
*RIGID BODY, ref node=65, tie nset=nsetRig65
*NSET, nset=nsetRig66
    66
  1066
*RIGID BODY, ref node=66, tie nset=nsetRig66
*NSET, nset=nsetRig67
    67
  1067
*RIGID BODY, ref node=67, tie nset=nsetRig67
*NSET, nset=nsetRig68
    68
  1068
*RIGID BODY, ref node=68, tie nset=nsetRig68
*NSET, nset=nsetRig69
    69
  1069
*RIGID BODY, ref node=69, tie nset=nsetRig69
*NSET, nset=nsetRig70
    70
  1070
*RIGID BODY, ref node=70, tie nset=nsetRig70
*NSET, nset=nsetRig71
    71
  1071
*RIGID BODY, ref node=71, tie nset=nsetRig71
*NSET, nset=nsetRig72
    72
  1072
*RIGID BODY, ref node=72, tie nset=nsetRig72
** --------------------------------------------------
** -- Elements
** --------------------------------------------------
*ELEMENT, type=B31, elset=elsetRim
     1,     1,     2
    72,    72,     1
*ELGEN, elset=elsetRim
     1,    71
*ELEMENT, type=B31, elset=elsetSpokes1
1001, 1001, 2001
*ELGEN, elset=elsetSpokes1
1001, 10, 1000, 1000
*ELEMENT, type=B31, elset=elsetSpokes2
1002, 1002, 2002
*ELGEN, elset=elsetSpokes2
1002, 10, 1000, 1000
*ELEMENT, type=B31, elset=elsetSpokes1
1003, 1003, 2003
*ELGEN, elset=elsetSpokes1
1003, 10, 1000, 1000
*ELEMENT, type=B31, elset=elsetSpokes2
1004, 1004, 2004
*ELGEN, elset=elsetSpokes2
1004, 10, 1000, 1000
*ELEMENT, type=B31, elset=elsetSpokes1
1005, 1005, 2005
*ELGEN, elset=elsetSpokes1
1005, 10, 1000, 1000
*ELEMENT, type=B31, elset=elsetSpokes2
1006, 1006, 2006
*ELGEN, elset=elsetSpokes2
1006, 10, 1000, 1000
*ELEMENT, type=B31, elset=elsetSpokes1
1007, 1007, 2007
*ELGEN, elset=elsetSpokes1
1007, 10, 1000, 1000
*ELEMENT, type=B31, elset=elsetSpokes2
1008, 1008, 2008
*ELGEN, elset=elsetSpokes2
1008, 10, 1000, 1000
*ELEMENT, type=B31, elset=elsetSpokes1
1009, 1009, 2009
*ELGEN, elset=elsetSpokes1
1009, 10, 1000, 1000
*ELEMENT, type=B31, elset=elsetSpokes2
1010, 1010, 2010
*ELGEN, elset=elsetSpokes2
1010, 10, 1000, 1000
*ELEMENT, type=B31, elset=elsetSpokes1
1011, 1011, 2011
*ELGEN, elset=elsetSpokes1
1011, 10, 1000, 1000
*ELEMENT, type=B31, elset=elsetSpokes2
1012, 1012, 2012
*ELGEN, elset=elsetSpokes2
1012, 10, 1000, 1000
*ELEMENT, type=B31, elset=elsetSpokes1
1013, 1013, 2013
*ELGEN, elset=elsetSpokes1
1013, 10, 1000, 1000
*ELEMENT, type=B31, elset=elsetSpokes2
1014, 1014, 2014
*ELGEN, elset=elsetSpokes2
1014, 10, 1000, 1000
*ELEMENT, type=B31, elset=elsetSpokes1
1015, 1015, 2015
*ELGEN, elset=elsetSpokes1
1015, 10, 1000, 1000
*ELEMENT, type=B31, elset=elsetSpokes2
1016, 1016, 2016
*ELGEN, elset=elsetSpokes2
1016, 10, 1000, 1000
*ELEMENT, type=B31, elset=elsetSpokes1
1017, 1017, 2017
*ELGEN, elset=elsetSpokes1
1017, 10, 1000, 1000
*ELEMENT, type=B31, elset=elsetSpokes2
1018, 1018, 2018
*ELGEN, elset=elsetSpokes2
1018, 10, 1000, 1000
*ELEMENT, type=B31, elset=elsetSpokes1
1019, 1019, 2019
*ELGEN, elset=elsetSpokes1
1019, 10, 1000, 1000
*ELEMENT, type=B31, elset=elsetSpokes2
1020, 1020, 2020
*ELGEN, elset=elsetSpokes2
1020, 10, 1000, 1000
*ELEMENT, type=B31, elset=elsetSpokes1
1021, 1021, 2021
*ELGEN, elset=elsetSpokes1
1021, 10, 1000, 1000
*ELEMENT, type=B31, elset=elsetSpokes2
1022, 1022, 2022
*ELGEN, elset=elsetSpokes2
1022, 10, 1000, 1000
*ELEMENT, type=B31, elset=elsetSpokes1
1023, 1023, 2023
*ELGEN, elset=elsetSpokes1
1023, 10, 1000, 1000
*ELEMENT, type=B31, elset=elsetSpokes2
1024, 1024, 2024
*ELGEN, elset=elsetSpokes2
1024, 10, 1000, 1000
*ELEMENT, type=B31, elset=elsetSpokes1
1025, 1025, 2025
*ELGEN, elset=elsetSpokes1
1025, 10, 1000, 1000
*ELEMENT, type=B31, elset=elsetSpokes2
1026, 1026, 2026
*ELGEN, elset=elsetSpokes2
1026, 10, 1000, 1000
*ELEMENT, type=B31, elset=elsetSpokes1
1027, 1027, 2027
*ELGEN, elset=elsetSpokes1
1027, 10, 1000, 1000
*ELEMENT, type=B31, elset=elsetSpokes2
1028, 1028, 2028
*ELGEN, elset=elsetSpokes2
1028, 10, 1000, 1000
*ELEMENT, type=B31, elset=elsetSpokes1
1029, 1029, 2029
*ELGEN, elset=elsetSpokes1
1029, 10, 1000, 1000
*ELEMENT, type=B31, elset=elsetSpokes2
1030, 1030, 2030
*ELGEN, elset=elsetSpokes2
1030, 10, 1000, 1000
*ELEMENT, type=B31, elset=elsetSpokes1
1031, 1031, 2031
*ELGEN, elset=elsetSpokes1
1031, 10, 1000, 1000
*ELEMENT, type=B31, elset=elsetSpokes2
1032, 1032, 2032
*ELGEN, elset=elsetSpokes2
1032, 10, 1000, 1000
*ELEMENT, type=B31, elset=elsetSpokes1
1033, 1033, 2033
*ELGEN, elset=elsetSpokes1
1033, 10, 1000, 1000
*ELEMENT, type=B31, elset=elsetSpokes2
1034, 1034, 2034
*ELGEN, elset=elsetSpokes2
1034, 10, 1000, 1000
*ELEMENT, type=B31, elset=elsetSpokes1
1035, 1035, 2035
*ELGEN, elset=elsetSpokes1
1035, 10, 1000, 1000
*ELEMENT, type=B31, elset=elsetSpokes2
1036, 1036, 2036
*ELGEN, elset=elsetSpokes2
1036, 10, 1000, 1000
*ELEMENT, type=B31, elset=elsetSpokes1
1037, 1037, 2037
*ELGEN, elset=elsetSpokes1
1037, 10, 1000, 1000
*ELEMENT, type=B31, elset=elsetSpokes2
1038, 1038, 2038
*ELGEN, elset=elsetSpokes2
1038, 10, 1000, 1000
*ELEMENT, type=B31, elset=elsetSpokes1
1039, 1039, 2039
*ELGEN, elset=elsetSpokes1
1039, 10, 1000, 1000
*ELEMENT, type=B31, elset=elsetSpokes2
1040, 1040, 2040
*ELGEN, elset=elsetSpokes2
1040, 10, 1000, 1000
*ELEMENT, type=B31, elset=elsetSpokes1
1041, 1041, 2041
*ELGEN, elset=elsetSpokes1
1041, 10, 1000, 1000
*ELEMENT, type=B31, elset=elsetSpokes2
1042, 1042, 2042
*ELGEN, elset=elsetSpokes2
1042, 10, 1000, 1000
*ELEMENT, type=B31, elset=elsetSpokes1
1043, 1043, 2043
*ELGEN, elset=elsetSpokes1
1043, 10, 1000, 1000
*ELEMENT, type=B31, elset=elsetSpokes2
1044, 1044, 2044
*ELGEN, elset=elsetSpokes2
1044, 10, 1000, 1000
*ELEMENT, type=B31, elset=elsetSpokes1
1045, 1045, 2045
*ELGEN, elset=elsetSpokes1
1045, 10, 1000, 1000
*ELEMENT, type=B31, elset=elsetSpokes2
1046, 1046, 2046
*ELGEN, elset=elsetSpokes2
1046, 10, 1000, 1000
*ELEMENT, type=B31, elset=elsetSpokes1
1047, 1047, 2047
*ELGEN, elset=elsetSpokes1
1047, 10, 1000, 1000
*ELEMENT, type=B31, elset=elsetSpokes2
1048, 1048, 2048
*ELGEN, elset=elsetSpokes2
1048, 10, 1000, 1000
*ELEMENT, type=B31, elset=elsetSpokes1
1049, 1049, 2049
*ELGEN, elset=elsetSpokes1
1049, 10, 1000, 1000
*ELEMENT, type=B31, elset=elsetSpokes2
1050, 1050, 2050
*ELGEN, elset=elsetSpokes2
1050, 10, 1000, 1000
*ELEMENT, type=B31, elset=elsetSpokes1
1051, 1051, 2051
*ELGEN, elset=elsetSpokes1
1051, 10, 1000, 1000
*ELEMENT, type=B31, elset=elsetSpokes2
1052, 1052, 2052
*ELGEN, elset=elsetSpokes2
1052, 10, 1000, 1000
*ELEMENT, type=B31, elset=elsetSpokes1
1053, 1053, 2053
*ELGEN, elset=elsetSpokes1
1053, 10, 1000, 1000
*ELEMENT, type=B31, elset=elsetSpokes2
1054, 1054, 2054
*ELGEN, elset=elsetSpokes2
1054, 10, 1000, 1000
*ELEMENT, type=B31, elset=elsetSpokes1
1055, 1055, 2055
*ELGEN, elset=elsetSpokes1
1055, 10, 1000, 1000
*ELEMENT, type=B31, elset=elsetSpokes2
1056, 1056, 2056
*ELGEN, elset=elsetSpokes2
1056, 10, 1000, 1000
*ELEMENT, type=B31, elset=elsetSpokes1
1057, 1057, 2057
*ELGEN, elset=elsetSpokes1
1057, 10, 1000, 1000
*ELEMENT, type=B31, elset=elsetSpokes2
1058, 1058, 2058
*ELGEN, elset=elsetSpokes2
1058, 10, 1000, 1000
*ELEMENT, type=B31, elset=elsetSpokes1
1059, 1059, 2059
*ELGEN, elset=elsetSpokes1
1059, 10, 1000, 1000
*ELEMENT, type=B31, elset=elsetSpokes2
1060, 1060, 2060
*ELGEN, elset=elsetSpokes2
1060, 10, 1000, 1000
*ELEMENT, type=B31, elset=elsetSpokes1
1061, 1061, 2061
*ELGEN, elset=elsetSpokes1
1061, 10, 1000, 1000
*ELEMENT, type=B31, elset=elsetSpokes2
1062, 1062, 2062
*ELGEN, elset=elsetSpokes2
1062, 10, 1000, 1000
*ELEMENT, type=B31, elset=elsetSpokes1
1063, 1063, 2063
*ELGEN, elset=elsetSpokes1
1063, 10, 1000, 1000
*ELEMENT, type=B31, elset=elsetSpokes2
1064, 1064, 2064
*ELGEN, elset=elsetSpokes2
1064, 10, 1000, 1000
*ELEMENT, type=B31, elset=elsetSpokes1
1065, 1065, 2065
*ELGEN, elset=elsetSpokes1
1065, 10, 1000, 1000
*ELEMENT, type=B31, elset=elsetSpokes2
1066, 1066, 2066
*ELGEN, elset=elsetSpokes2
1066, 10, 1000, 1000
*ELEMENT, type=B31, elset=elsetSpokes1
1067, 1067, 2067
*ELGEN, elset=elsetSpokes1
1067, 10, 1000, 1000
*ELEMENT, type=B31, elset=elsetSpokes2
1068, 1068, 2068
*ELGEN, elset=elsetSpokes2
1068, 10, 1000, 1000
*ELEMENT, type=B31, elset=elsetSpokes1
1069, 1069, 2069
*ELGEN, elset=elsetSpokes1
1069, 10, 1000, 1000
*ELEMENT, type=B31, elset=elsetSpokes2
1070, 1070, 2070
*ELGEN, elset=elsetSpokes2
1070, 10, 1000, 1000
*ELEMENT, type=B31, elset=elsetSpokes1
1071, 1071, 2071
*ELGEN, elset=elsetSpokes1
1071, 10, 1000, 1000
*ELEMENT, type=B31, elset=elsetSpokes2
1072, 1072, 2072
*ELGEN, elset=elsetSpokes2
1072, 10, 1000, 1000
*ELSET, elset=elsetSpokes
elsetSpokes1, elsetSpokes2
*ELSET, elset=elsetSpokesRef, generate
 1001, 1072, 1
** --------------------------------------------------
** -- Sections
** --------------------------------------------------
*PRE-TENSION SECTION, node=99001, element=1001
*PRE-TENSION SECTION, node=99002, element=1002
*PRE-TENSION SECTION, node=99003, element=1003
*PRE-TENSION SECTION, node=99004, element=1004
*PRE-TENSION SECTION, node=99005, element=1005
*PRE-TENSION SECTION, node=99006, element=1006
*PRE-TENSION SECTION, node=99007, element=1007
*PRE-TENSION SECTION, node=99008, element=1008
*PRE-TENSION SECTION, node=99009, element=1009
*PRE-TENSION SECTION, node=99010, element=1010
*PRE-TENSION SECTION, node=99011, element=1011
*PRE-TENSION SECTION, node=99012, element=1012
*PRE-TENSION SECTION, node=99013, element=1013
*PRE-TENSION SECTION, node=99014, element=1014
*PRE-TENSION SECTION, node=99015, element=1015
*PRE-TENSION SECTION, node=99016, element=1016
*PRE-TENSION SECTION, node=99017, element=1017
*PRE-TENSION SECTION, node=99018, element=1018
*PRE-TENSION SECTION, node=99019, element=1019
*PRE-TENSION SECTION, node=99020, element=1020
** ... 52 like lines cut
*BEAM SECTION, elset=elsetSpokes1, material=steel1, section=CIRC
7.071068e-04
0.,0.,-1.
*BEAM SECTION, elset=elsetSpokes2, material=steel2, section=CIRC
7.071068e-04
0.,0.,-1.
*MATERIAL, name=steel1
*ELASTIC
 2.000000e+11, 0.33
*DENSITY
 8050.0
*DAMPING, alpha=1.000000e+03
*EXPANSION, type=iso
 1.000000e+00
*MATERIAL, name=steel2
*ELASTIC
 2.000000e+11, 0.33
*DENSITY
 8050.0
*DAMPING, alpha=1.000000e+03
*EXPANSION, type=iso
 1.000000e+00
*BEAM GENERAL SECTION, elset=elsetRim, section=GENERAL, density=2700.0
1.7000E-04, 1.0367E-09, 0., 1.0137E-07, 3.7647E-09, 0.0000E+00, 0.0000E+00
0.,0.,-1.
6.9000e+10,    2.6e+10
** --------------------------------------------------
** -- Boundary conditions
** --------------------------------------------------
*BOUNDARY
 nsetHub, ENCASTRE
** --------------------------------------------------
** -- Pre-load spokes
** --------------------------------------------------
*STEP, name=preT, nlgeom=YES
*STATIC
1., 1., 1e-05, 1.
*BOUNDARY, op=new
nsetHub, ENCASTRE
*CLOAD
 99001, 1, 2.254569e+03
 99002, 1, 2.254569e+03
 99003, 1, 2.254569e+03
 99004, 1, 2.254569e+03
 99005, 1, 2.254569e+03
 99006, 1, 2.254569e+03
 99007, 1, 2.254569e+03
 99008, 1, 2.254569e+03
 99009, 1, 2.254569e+03
 99010, 1, 2.254569e+03
 99011, 1, 2.254569e+03
 99012, 1, 2.254569e+03
 99013, 1, 2.254569e+03
 99014, 1, 2.254569e+03
 99015, 1, 2.254569e+03
 99016, 1, 2.254569e+03
 99017, 1, 2.254569e+03
 99018, 1, 2.254569e+03
 99019, 1, 2.254569e+03
 99020, 1, 2.254569e+03
** ... 52 like lines cut
*OUTPUT, field, variable=PRESELECT
*ELEMENT OUTPUT, elset=elsetSpokes
SF
*ELEMENT OUTPUT, elset=elsetRim
SF
*OUTPUT, history, variable=PRESELECT
*END STEP
** --------------------------------------------------
** -- Lateral Stiffness
** --------------------------------------------------
*STEP, name=K_lat, perturbation
*STATIC
*BOUNDARY, fixed
nsetPreT, 1
*CLOAD
1, 3, 1
*OUTPUT, field, variable=PRESELECT
*ELEMENT OUTPUT, elset=elsetSpokes
SF
*ELEMENT OUTPUT, elset=elsetRim
SF
*OUTPUT, history, variable=PRESELECT
*END STEP
