*Heading
** Radial collapse with beam spokes
**
** --------------------------------------------------
** -- Nodes
** --------------------------------------------------
*NODE, nset=nsetRim
     1,  0.0000E+00, -3.0100E-01,  3.0000E-05
     2,  2.6234E-02, -2.9985E-01,  2.9469E-05
     3,  5.2268E-02, -2.9643E-01,  2.7905E-05
     4,  7.7905E-02, -2.9074E-01,  2.5391E-05
     5,  1.0295E-01, -2.8285E-01,  2.2057E-05
     6,  1.2721E-01, -2.7280E-01,  1.8079E-05
     7,  1.5050E-01, -2.6067E-01,  1.3660E-05
     8,  1.7265E-01, -2.4656E-01,  9.0235E-06
     9,  1.9348E-01, -2.3058E-01,  4.3969E-06
    10,  2.1284E-01, -2.1284E-01,  1.6941E-21
    11,  2.3058E-01, -1.9348E-01, -3.9689E-06
    12,  2.4656E-01, -1.7265E-01, -7.3437E-06
    13,  2.6067E-01, -1.5050E-01, -1.0000E-05
    14,  2.7280E-01, -1.2721E-01, -1.1861E-05
    15,  2.8285E-01, -1.0295E-01, -1.2900E-05
    16,  2.9074E-01, -7.7905E-02, -1.3143E-05
    17,  2.9643E-01, -5.2268E-02, -1.2660E-05
    18,  2.9985E-01, -2.6234E-02, -1.1565E-05
    19,  3.0100E-01, -1.8431E-17, -1.0000E-05
    20,  2.9985E-01,  2.6234E-02, -8.1314E-06
** ... 52 like lines cut
*NSET, nset=nsetSpokeNip
     1
     4
     7
    10
    13
    16
    19
    22
    25
    28
    31
    34
    37
    40
    43
    46
    49
    52
    55
    58
** ... 4 like lines cut
*NODE, nset=nsetSpokes
  1001,  0.0000E+00, -3.0100E-01,  0.0000E+00
  2001,  0.0000E+00, -2.7290E-01,  2.5000E-03
  3001,  0.0000E+00, -2.4480E-01,  5.0000E-03
  4001,  0.0000E+00, -2.1670E-01,  7.5000E-03
  5001,  0.0000E+00, -1.8860E-01,  1.0000E-02
  6001,  0.0000E+00, -1.6050E-01,  1.2500E-02
  7001,  0.0000E+00, -1.3240E-01,  1.5000E-02
  8001,  0.0000E+00, -1.0430E-01,  1.7500E-02
  9001,  0.0000E+00, -7.6200E-02,  2.0000E-02
 10001,  0.0000E+00, -4.8100E-02,  2.2500E-02
 11001,  0.0000E+00, -2.0000E-02,  2.5000E-02
  1002,  7.7905E-02, -2.9074E-01, -0.0000E+00
  2002,  7.0632E-02, -2.6360E-01, -2.5000E-03
  3002,  6.3359E-02, -2.3646E-01, -5.0000E-03
  4002,  5.6086E-02, -2.0932E-01, -7.5000E-03
  5002,  4.8813E-02, -1.8217E-01, -1.0000E-02
  6002,  4.1540E-02, -1.5503E-01, -1.2500E-02
  7002,  3.4268E-02, -1.2789E-01, -1.5000E-02
  8002,  2.6995E-02, -1.0075E-01, -1.7500E-02
  9002,  1.9722E-02, -7.3604E-02, -2.0000E-02
** ... 244 like lines cut
*NSET, nset=nsetHub
 11001
 11002
 11003
 11004
 11005
 11006
 11007
 11008
 11009
 11010
 11011
 11012
 11013
 11014
 11015
 11016
 11017
 11018
 11019
 11020
** ... 4 like lines cut
*NODE, nset=nsetPreT
 99001,  0.0000E+00,  0.0000E+00,  0.0000E+00
 99002,  0.0000E+00,  0.0000E+00,  0.0000E+00
 99003,  0.0000E+00,  0.0000E+00,  0.0000E+00
 99004,  0.0000E+00,  0.0000E+00,  0.0000E+00
 99005,  0.0000E+00,  0.0000E+00,  0.0000E+00
 99006,  0.0000E+00,  0.0000E+00,  0.0000E+00
 99007,  0.0000E+00,  0.0000E+00,  0.0000E+00
 99008,  0.0000E+00,  0.0000E+00,  0.0000E+00
 99009,  0.0000E+00,  0.0000E+00,  0.0000E+00
 99010,  0.0000E+00,  0.0000E+00,  0.0000E+00
 99011,  0.0000E+00,  0.0000E+00,  0.0000E+00
 99012,  0.0000E+00,  0.0000E+00,  0.0000E+00
 99013,  0.0000E+00,  0.0000E+00,  0.0000E+00
 99014,  0.0000E+00,  0.0000E+00,  0.0000E+00
 99015,  0.0000E+00,  0.0000E+00,  0.0000E+00
 99016,  0.0000E+00,  0.0000E+00,  0.0000E+00
 99017,  0.0000E+00,  0.0000E+00,  0.0000E+00
 99018,  0.0000E+00,  0.0000E+00,  0.0000E+00
 99019,  0.0000E+00,  0.0000E+00,  0.0000E+00
 99020,  0.0000E+00,  0.0000E+00,  0.0000E+00
** ... 4 like lines cut
*NSET, nset=nsetRig1
     1
  1001
*RIGID BODY, ref node=1, tie nset=nsetRig1
*NSET, nset=nsetRig4
     4
  1002
*RIGID BODY, ref node=4, tie nset=nsetRig4
*NSET, nset=nsetRig7
     7
  1003
*RIGID BODY, ref node=7, tie nset=nsetRig7
*NSET, nset=nsetRig10
    10
  1004
*RIGID BODY, ref node=10, tie nset=nsetRig10
*NSET, nset=nsetRig13
    13
  1005
*RIGID BODY, ref node=13, tie nset=nsetRig13
*NSET, nset=nsetRig16
    16
  1006
*RIGID BODY, ref node=16, tie nset=nsetRig16
*NSET, nset=nsetRig19
    19
  1007
*RIGID BODY, ref node=19, tie nset=nsetRig19
*NSET, nset=nsetRig22
    22
  1008
*RIGID BODY, ref node=22, tie nset=nsetRig22
*NSET, nset=nsetRig25
    25
  1009
*RIGID BODY, ref node=25, tie nset=nsetRig25
*NSET, nset=nsetRig28
    28
  1010
*RIGID BODY, ref node=28, tie nset=nsetRig28
*NSET, nset=nsetRig31
    31
  1011
*RIGID BODY, ref node=31, tie nset=nsetRig31
*NSET, nset=nsetRig34
    34
  1012
*RIGID BODY, ref node=34, tie nset=nsetRig34
*NSET, nset=nsetRig37
    37
  1013
*RIGID BODY, ref node=37, tie nset=nsetRig37
*NSET, nset=nsetRig40
    40
  1014
*RIGID BODY, ref node=40, tie nset=nsetRig40
*NSET, nset=nsetRig43
    43
  1015
*RIGID BODY, ref node=43, tie nset=nsetRig43
*NSET, nset=nsetRig46
    46
  1016
*RIGID BODY, ref node=46, tie nset=nsetRig46
*NSET, nset=nsetRig49
    49
  1017
*RIGID BODY, ref node=49, tie nset=nsetRig49
*NSET, nset=nsetRig52
    52
  1018
*RIGID BODY, ref node=52, tie nset=nsetRig52
*NSET, nset=nsetRig55
    55
  1019
*RIGID BODY, ref node=55, tie nset=nsetRig55
*NSET, nset=nsetRig58
    58
  1020
*RIGID BODY, ref node=58, tie nset=nsetRig58
*NSET, nset=nsetRig61
    61
  1021
*RIGID BODY, ref node=61, tie nset=nsetRig61
*NSET, nset=nsetRig64
    64
  1022
*RIGID BODY, ref node=64, tie nset=nsetRig64
*NSET, nset=nsetRig67
    67
  1023
*RIGID BODY, ref node=67, tie nset=nsetRig67
*NSET, nset=nsetRig70
    70
  1024
*RIGID BODY, ref node=70, tie nset=nsetRig70
** --------------------------------------------------
** -- Elements
** --------------------------------------------------
*ELEMENT, type=B31, elset=elsetRim
     1,     1,     2
    72,    72,     1
*ELGEN, elset=elsetRim
     1,    71
*ELEMENT, type=B31, elset=elsetSpokes1
1001, 1001, 2001
*ELGEN, elset=elsetSpokes1
1001, 10, 1000, 1000
*ELEMENT, type=B31, elset=elsetSpokes2
1002, 1002, 2002
*ELGEN, elset=elsetSpokes2
1002, 10, 1000, 1000
*ELEMENT, type=B31, elset=elsetSpokes1
1003, 1003, 2003
*ELGEN, elset=elsetSpokes1
1003, 10, 1000, 1000
*ELEMENT, type=B31, elset=elsetSpokes2
1004, 1004, 2004
*ELGEN, elset=elsetSpokes2
1004, 10, 1000, 1000
*ELEMENT, type=B31, elset=elsetSpokes1
1005, 1005, 2005
*ELGEN, elset=elsetSpokes1
1005, 10, 1000, 1000
*ELEMENT, type=B31, elset=elsetSpokes2
1006, 1006, 2006
*ELGEN, elset=elsetSpokes2
1006, 10, 1000, 1000
*ELEMENT, type=B31, elset=elsetSpokes1
1007, 1007, 2007
*ELGEN, elset=elsetSpokes1
1007, 10, 1000, 1000
*ELEMENT, type=B31, elset=elsetSpokes2
1008, 1008, 2008
*ELGEN, elset=elsetSpokes2
1008, 10, 1000, 1000
*ELEMENT, type=B31, elset=elsetSpokes1
1009, 1009, 2009
*ELGEN, elset=elsetSpokes1
1009, 10, 1000, 1000
*ELEMENT, type=B31, elset=elsetSpokes2
1010, 1010, 2010
*ELGEN, elset=elsetSpokes2
1010, 10, 1000, 1000
*ELEMENT, type=B31, elset=elsetSpokes1
1011, 1011, 2011
*ELGEN, elset=elsetSpokes1
1011, 10, 1000, 1000
*ELEMENT, type=B31, elset=elsetSpokes2
1012, 1012, 2012
*ELGEN, elset=elsetSpokes2
1012, 10, 1000, 1000
*ELEMENT, type=B31, elset=elsetSpokes1
1013, 1013, 2013
*ELGEN, elset=elsetSpokes1
1013, 10, 1000, 1000
*ELEMENT, type=B31, elset=elsetSpokes2
1014, 1014, 2014
*ELGEN, elset=elsetSpokes2
1014, 10, 1000, 1000
*ELEMENT, type=B31, elset=elsetSpokes1
1015, 1015, 2015
*ELGEN, elset=elsetSpokes1
1015, 10, 1000, 1000
*ELEMENT, type=B31, elset=elsetSpokes2
1016, 1016, 2016
*ELGEN, elset=elsetSpokes2
1016, 10, 1000, 1000
*ELEMENT, type=B31, elset=elsetSpokes1
1017, 1017, 2017
*ELGEN, elset=elsetSpokes1
1017, 10, 1000, 1000
*ELEMENT, type=B31, elset=elsetSpokes2
1018, 1018, 2018
*ELGEN, elset=elsetSpokes2
1018, 10, 1000, 1000
*ELEMENT, type=B31, elset=elsetSpokes1
1019, 1019, 2019
*ELGEN, elset=elsetSpokes1
1019, 10, 1000, 1000
*ELEMENT, type=B31, elset=elsetSpokes2
1020, 1020, 2020
*ELGEN, elset=elsetSpokes2
1020, 10, 1000, 1000
*ELEMENT, type=B31, elset=elsetSpokes1
1021, 1021, 2021
*ELGEN, elset=elsetSpokes1
1021, 10, 1000, 1000
*ELEMENT, type=B31, elset=elsetSpokes2
1022, 1022, 2022
*ELGEN, elset=elsetSpokes2
1022, 10, 1000, 1000
*ELEMENT, type=B31, elset=elsetSpokes1
1023, 1023, 2023
*ELGEN, elset=elsetSpokes1
1023, 10, 1000, 1000
*ELEMENT, type=B31, elset=elsetSpokes2
1024, 1024, 2024
*ELGEN, elset=elsetSpokes2
1024, 10, 1000, 1000
*ELSET, elset=elsetSpokes
elsetSpokes1, elsetSpokes2
*ELSET, elset=elsetSpokesRef, generate
 1001, 1024, 1
** --------------------------------------------------
** -- Sections
** --------------------------------------------------
*PRE-TENSION SECTION, node=99001, element=1001
*PRE-TENSION SECTION, node=99002, element=1002
*PRE-TENSION SECTION, node=99003, element=1003
*PRE-TENSION SECTION, node=99004, element=1004
*PRE-TENSION SECTION, node=99005, element=1005
*PRE-TENSION SECTION, node=99006, element=1006
*PRE-TENSION SECTION, node=99007, element=1007
*PRE-TENSION SECTION, node=99008, element=1008
*PRE-TENSION SECTION, node=99009, element=1009
*PRE-TENSION SECTION, node=99010, element=1010
*PRE-TENSION SECTION, node=99011, element=1011
*PRE-TENSION SECTION, node=99012, element=1012
*PRE-TENSION SECTION, node=99013, element=1013
*PRE-TENSION SECTION, node=99014, element=1014
*PRE-TENSION SECTION, node=99015, element=1015
*PRE-TENSION SECTION, node=99016, element=1016
*PRE-TENSION SECTION, node=99017, element=1017
*PRE-TENSION SECTION, node=99018, element=1018
*PRE-TENSION SECTION, node=99019, element=1019
*PRE-TENSION SECTION, node=99020, element=1020
** ... 4 like lines cut
*BEAM SECTION, elset=elsetSpokes1, material=steel1, section=CIRC
7.500000e-04
0.,0.,-1.
*BEAM SECTION, elset=elsetSpokes2, material=steel2, section=CIRC
7.500000e-04
0.,0.,-1.
*MATERIAL, name=steel1
*ELASTIC
 2.100000e+11, 0.33
*DENSITY
 8050.0
*DAMPING, alpha=1.000000e+03
*EXPANSION, type=iso
 1.000000e+00
*MATERIAL, name=steel2
*ELASTIC
 2.100000e+11, 0.33
*DENSITY
 8050.0
*DAMPING, alpha=1.000000e+03
*EXPANSION, type=iso
 1.000000e+00
*BEAM GENERAL SECTION, elset=elsetRim, section=GENERAL, density=2700.0
1.0000E-04, 2.8986E-09, 0., 2.8986E-09, 3.0769E-09, 0.0000E+00, 0.0000E+00
0.,0.,-1.
6.9000e+10,    2.6e+10
** --------------------------------------------------
** -- Boundary conditions
** --------------------------------------------------
*BOUNDARY
 nsetHub, ENCASTRE
** --------------------------------------------------
** -- Pre-load spokes
** --------------------------------------------------
*STEP, name=preT, nlgeom=YES
*STATIC
1., 1., 1e-05, 1.
*CLOAD
 99001, 1, 4.308587e+02
 99002, 1, 4.308587e+02
 99003, 1, 4.308587e+02
 99004, 1, 4.308587e+02
 99005, 1, 4.308587e+02
 99006, 1, 4.308587e+02
 99007, 1, 4.308587e+02
 99008, 1, 4.308587e+02
 99009, 1, 4.308587e+02
 99010, 1, 4.308587e+02
 99011, 1, 4.308587e+02
 99012, 1, 4.308587e+02
 99013, 1, 4.308587e+02
 99014, 1, 4.308587e+02
 99015, 1, 4.308587e+02
 99016, 1, 4.308587e+02
 99017, 1, 4.308587e+02
 99018, 1, 4.308587e+02
 99019, 1, 4.308587e+02
 99020, 1, 4.308587e+02
** ... 4 like lines cut
*OUTPUT, field, variable=PRESELECT
*ELEMENT OUTPUT, elset=elsetSpokes
SF
*ELEMENT OUTPUT, elset=elsetRim
SF
*RESTART, write, number interval=1
*END STEP
