*Heading
** Radial collapse with beam spokes
**
** --------------------------------------------------
** -- Nodes
** --------------------------------------------------
*NODE, nset=nsetRim
     1,  0.0000E+00, -3.0100E-01,  3.0000E-05
     2,  1.9686E-02, -3.0036E-01,  2.9701E-05
     3,  3.9288E-02, -2.9842E-01,  2.8813E-05
     4,  5.8722E-02, -2.9522E-01,  2.7361E-05
     5,  7.7905E-02, -2.9074E-01,  2.5391E-05
     6,  9.6753E-02, -2.8503E-01,  2.2959E-05
     7,  1.1519E-01, -2.7809E-01,  2.0137E-05
     8,  1.3313E-01, -2.6996E-01,  1.7007E-05
     9,  1.5050E-01, -2.6067E-01,  1.3660E-05
    10,  1.6723E-01, -2.5027E-01,  1.0191E-05
    11,  1.8324E-01, -2.3880E-01,  6.6949E-06
    12,  1.9846E-01, -2.2630E-01,  3.2680E-06
    13,  2.1284E-01, -2.1284E-01,  1.6941E-21
    14,  2.2630E-01, -1.9846E-01, -3.0265E-06
    15,  2.3880E-01, -1.8324E-01, -5.7394E-06
    16,  2.5027E-01, -1.6723E-01, -8.0790E-06
    17,  2.6067E-01, -1.5050E-01, -1.0000E-05
    18,  2.6996E-01, -1.3313E-01, -1.1473E-05
    19,  2.7809E-01, -1.1519E-01, -1.2483E-05
    20,  2.8503E-01, -9.6753E-02, -1.3034E-05
** ... 76 like lines cut
*NSET, nset=nsetSpokeNip
     1
     3
     5
     7
     9
    11
    13
    15
    17
    19
    21
    23
    25
    27
    29
    31
    33
    35
    37
    39
** ... 28 like lines cut
*NODE, nset=nsetSpokes
  1001,  0.0000E+00, -3.0100E-01,  0.0000E+00
  2001,  0.0000E+00, -2.7290E-01,  3.5000E-03
  3001,  0.0000E+00, -2.4480E-01,  7.0000E-03
  4001,  0.0000E+00, -2.1670E-01,  1.0500E-02
  5001,  0.0000E+00, -1.8860E-01,  1.4000E-02
  6001,  0.0000E+00, -1.6050E-01,  1.7500E-02
  7001,  0.0000E+00, -1.3240E-01,  2.1000E-02
  8001,  0.0000E+00, -1.0430E-01,  2.4500E-02
  9001,  0.0000E+00, -7.6200E-02,  2.8000E-02
 10001,  0.0000E+00, -4.8100E-02,  3.1500E-02
 11001,  0.0000E+00, -2.0000E-02,  3.5000E-02
  1002,  3.9288E-02, -2.9842E-01, -0.0000E+00
  2002,  3.5621E-02, -2.7057E-01, -3.5000E-03
  3002,  3.1953E-02, -2.4271E-01, -7.0000E-03
  4002,  2.8285E-02, -2.1485E-01, -1.0500E-02
  5002,  2.4617E-02, -1.8699E-01, -1.4000E-02
  6002,  2.0949E-02, -1.5913E-01, -1.7500E-02
  7002,  1.7282E-02, -1.3127E-01, -2.1000E-02
  8002,  1.3614E-02, -1.0341E-01, -2.4500E-02
  9002,  9.9461E-03, -7.5548E-02, -2.8000E-02
** ... 508 like lines cut
*NSET, nset=nsetHub
 11001
 11002
 11003
 11004
 11005
 11006
 11007
 11008
 11009
 11010
 11011
 11012
 11013
 11014
 11015
 11016
 11017
 11018
 11019
 11020
** ... 28 like lines cut
*NODE, nset=nsetPreT
 99001,  0.0000E+00,  0.0000E+00,  0.0000E+00
 99002,  0.0000E+00,  0.0000E+00,  0.0000E+00
 99003,  0.0000E+00,  0.0000E+00,  0.0000E+00
 99004,  0.0000E+00,  0.0000E+00,  0.0000E+00
 99005,  0.0000E+00,  0.0000E+00,  0.0000E+00
 99006,  0.0000E+00,  0.0000E+00,  0.0000E+00
 99007,  0.0000E+00,  0.0000E+00,  0.0000E+00
 99008,  0.0000E+00,  0.0000E+00,  0.0000E+00
 99009,  0.0000E+00,  0.0000E+00,  0.0000E+00
 99010,  0.0000E+00,  0.0000E+00,  0.0000E+00
 99011,  0.0000E+00,  0.0000E+00,  0.0000E+00
 99012,  0.0000E+00,  0.0000E+00,  0.0000E+00
 99013,  0.0000E+00,  0.0000E+00,  0.0000E+00
 99014,  0.0000E+00,  0.0000E+00,  0.0000E+00
 99015,  0.0000E+00,  0.0000E+00,  0.0000E+00
 99016,  0.0000E+00,  0.0000E+00,  0.0000E+00
 99017,  0.0000E+00,  0.0000E+00,  0.0000E+00
 99018,  0.0000E+00,  0.0000E+00,  0.0000E+00
 99019,  0.0000E+00,  0.0000E+00,  0.0000E+00
 99020,  0.0000E+00,  0.0000E+00,  0.0000E+00
** ... 28 like lines cut
*NSET, nset=nsetRig1
     1
  1001
*RIGID BODY, ref node=1, tie nset=nsetRig1
*NSET, nset=nsetRig3
     3
  1002
*RIGID BODY, ref node=3, tie nset=nsetRig3
*NSET, nset=nsetRig5
     5
  1003
*RIGID BODY, ref node=5, tie nset=nsetRig5
*NSET, nset=nsetRig7
     7
  1004
*RIGID BODY, ref node=7, tie nset=nsetRig7
*NSET, nset=nsetRig9
     9
  1005
*RIGID BODY, ref node=9, tie nset=nsetRig9
*NSET, nset=nsetRig11
    11
  1006
*RIGID BODY, ref node=11, tie nset=nsetRig11
*NSET, nset=nsetRig13
    13
  1007
*RIGID BODY, ref node=13, tie nset=nsetRig13
*NSET, nset=nsetRig15
    15
  1008
*RIGID BODY, ref node=15, tie nset=nsetRig15
*NSET, nset=nsetRig17
    17
  1009
*RIGID BODY, ref node=17, tie nset=nsetRig17
*NSET, nset=nsetRig19
    19
  1010
*RIGID BODY, ref node=19, tie nset=nsetRig19
*NSET, nset=nsetRig21
    21
  1011
*RIGID BODY, ref node=21, tie nset=nsetRig21
*NSET, nset=nsetRig23
    23
  1012
*RIGID BODY, ref node=23, tie nset=nsetRig23
*NSET, nset=nsetRig25
    25
  1013
*RIGID BODY, ref node=25, tie nset=nsetRig25
*NSET, nset=nsetRig27
    27
  1014
*RIGID BODY, ref node=27, tie nset=nsetRig27
*NSET, nset=nsetRig29
    29
  1015
*RIGID BODY, ref node=29, tie nset=nsetRig29
*NSET, nset=nsetRig31
    31
  1016
*RIGID BODY, ref node=31, tie nset=nsetRig31
*NSET, nset=nsetRig33
    33
  1017
*RIGID BODY, ref node=33, tie nset=nsetRig33
*NSET, nset=nsetRig35
    35
  1018
*RIGID BODY, ref node=35, tie nset=nsetRig35
*NSET, nset=nsetRig37
    37
  1019
*RIGID BODY, ref node=37, tie nset=nsetRig37
*NSET, nset=nsetRig39
    39
  1020
*RIGID BODY, ref node=39, tie nset=nsetRig39
*NSET, nset=nsetRig41
    41
  1021
*RIGID BODY, ref node=41, tie nset=nsetRig41
*NSET, nset=nsetRig43
    43
  1022
*RIGID BODY, ref node=43, tie nset=nsetRig43
*NSET, nset=nsetRig45
    45
  1023
*RIGID BODY, ref node=45, tie nset=nsetRig45
*NSET, nset=nsetRig47
    47
  1024
*RIGID BODY, ref node=47, tie nset=nsetRig47
*NSET, nset=nsetRig49
    49
  1025
*RIGID BODY, ref node=49, tie nset=nsetRig49
*NSET, nset=nsetRig51
    51
  1026
*RIGID BODY, ref node=51, tie nset=nsetRig51
*NSET, nset=nsetRig53
    53
  1027
*RIGID BODY, ref node=53, tie nset=nsetRig53
*NSET, nset=nsetRig55
    55
  1028
*RIGID BODY, ref node=55, tie nset=nsetRig55
*NSET, nset=nsetRig57
    57
  1029
*RIGID BODY, ref node=57, tie nset=nsetRig57
*NSET, nset=nsetRig59
    59
  1030
*RIGID BODY, ref node=59, tie nset=nsetRig59
*NSET, nset=nsetRig61
    61
  1031
*RIGID BODY, ref node=61, tie nset=nsetRig61
*NSET, nset=nsetRig63
    63
  1032
*RIGID BODY, ref node=63, tie nset=nsetRig63
*NSET, nset=nsetRig65
    65
  1033
*RIGID BODY, ref node=65, tie nset=nsetRig65
*NSET, nset=nsetRig67
    67
  1034
*RIGID BODY, ref node=67, tie nset=nsetRig67
*NSET, nset=nsetRig69
    69
  1035
*RIGID BODY, ref node=69, tie nset=nsetRig69
*NSET, nset=nsetRig71
    71
  1036
*RIGID BODY, ref node=71, tie nset=nsetRig71
*NSET, nset=nsetRig73
    73
  1037
*RIGID BODY, ref node=73, tie nset=nsetRig73
*NSET, nset=nsetRig75
    75
  1038
*RIGID BODY, ref node=75, tie nset=nsetRig75
*NSET, nset=nsetRig77
    77
  1039
*RIGID BODY, ref node=77, tie nset=nsetRig77
*NSET, nset=nsetRig79
    79
  1040
*RIGID BODY, ref node=79, tie nset=nsetRig79
*NSET, nset=nsetRig81
    81
  1041
*RIGID BODY, ref node=81, tie nset=nsetRig81
*NSET, nset=nsetRig83
    83
  1042
*RIGID BODY, ref node=83, tie nset=nsetRig83
*NSET, nset=nsetRig85
    85
  1043
*RIGID BODY, ref node=85, tie nset=nsetRig85
*NSET, nset=nsetRig87
    87
  1044
*RIGID BODY, ref node=87, tie nset=nsetRig87
*NSET, nset=nsetRig89
    89
  1045
*RIGID BODY, ref node=89, tie nset=nsetRig89
*NSET, nset=nsetRig91
    91
  1046
*RIGID BODY, ref node=91, tie nset=nsetRig91
*NSET, nset=nsetRig93
    93
  1047
*RIGID BODY, ref node=93, tie nset=nsetRig93
*NSET, nset=nsetRig95
    95
  1048
*RIGID BODY, ref node=95, tie nset=nsetRig95
** --------------------------------------------------
** -- Elements
** --------------------------------------------------
*ELEMENT, type=B31, elset=elsetRim
     1,     1,     2
    96,    96,     1
*ELGEN, elset=elsetRim
     1,    95
*ELEMENT, type=B31, elset=elsetSpokes1
1001, 1001, 2001
*ELGEN, elset=elsetSpokes1
1001, 10, 1000, 1000
*ELEMENT, type=B31, elset=elsetSpokes2
1002, 1002, 2002
*ELGEN, elset=elsetSpokes2
1002, 10, 1000, 1000
*ELEMENT, type=B31, elset=elsetSpokes1
1003, 1003, 2003
*ELGEN, elset=elsetSpokes1
1003, 10, 1000, 1000
*ELEMENT, type=B31, elset=elsetSpokes2
1004, 1004, 2004
*ELGEN, elset=elsetSpokes2
1004, 10, 1000, 1000
*ELEMENT, type=B31, elset=elsetSpokes1
1005, 1005, 2005
*ELGEN, elset=elsetSpokes1
1005, 10, 1000, 1000
*ELEMENT, type=B31, elset=elsetSpokes2
1006, 1006, 2006
*ELGEN, elset=elsetSpokes2
1006, 10, 1000, 1000
*ELEMENT, type=B31, elset=elsetSpokes1
1007, 1007, 2007
*ELGEN, elset=elsetSpokes1
1007, 10, 1000, 1000
*ELEMENT, type=B31, elset=elsetSpokes2
1008, 1008, 2008
*ELGEN, elset=elsetSpokes2
1008, 10, 1000, 1000
*ELEMENT, type=B31, elset=elsetSpokes1
1009, 1009, 2009
*ELGEN, elset=elsetSpokes1
1009, 10, 1000, 1000
*ELEMENT, type=B31, elset=elsetSpokes2
1010, 1010, 2010
*ELGEN, elset=elsetSpokes2
1010, 10, 1000, 1000
*ELEMENT, type=B31, elset=elsetSpokes1
1011, 1011, 2011
*ELGEN, elset=elsetSpokes1
1011, 10, 1000, 1000
*ELEMENT, type=B31, elset=elsetSpokes2
1012, 1012, 2012
*ELGEN, elset=elsetSpokes2
1012, 10, 1000, 1000
*ELEMENT, type=B31, elset=elsetSpokes1
1013, 1013, 2013
*ELGEN, elset=elsetSpokes1
1013, 10, 1000, 1000
*ELEMENT, type=B31, elset=elsetSpokes2
1014, 1014, 2014
*ELGEN, elset=elsetSpokes2
1014, 10, 1000, 1000
*ELEMENT, type=B31, elset=elsetSpokes1
1015, 1015, 2015
*ELGEN, elset=elsetSpokes1
1015, 10, 1000, 1000
*ELEMENT, type=B31, elset=elsetSpokes2
1016, 1016, 2016
*ELGEN, elset=elsetSpokes2
1016, 10, 1000, 1000
*ELEMENT, type=B31, elset=elsetSpokes1
1017, 1017, 2017
*ELGEN, elset=elsetSpokes1
1017, 10, 1000, 1000
*ELEMENT, type=B31, elset=elsetSpokes2
1018, 1018, 2018
*ELGEN, elset=elsetSpokes2
1018, 10, 1000, 1000
*ELEMENT, type=B31, elset=elsetSpokes1
1019, 1019, 2019
*ELGEN, elset=elsetSpokes1
1019, 10, 1000, 1000
*ELEMENT, type=B31, elset=elsetSpokes2
1020, 1020, 2020
*ELGEN, elset=elsetSpokes2
1020, 10, 1000, 1000
*ELEMENT, type=B31, elset=elsetSpokes1
1021, 1021, 2021
*ELGEN, elset=elsetSpokes1
1021, 10, 1000, 1000
*ELEMENT, type=B31, elset=elsetSpokes2
1022, 1022, 2022
*ELGEN, elset=elsetSpokes2
1022, 10, 1000, 1000
*ELEMENT, type=B31, elset=elsetSpokes1
1023, 1023, 2023
*ELGEN, elset=elsetSpokes1
1023, 10, 1000, 1000
*ELEMENT, type=B31, elset=elsetSpokes2
1024, 1024, 2024
*ELGEN, elset=elsetSpokes2
1024, 10, 1000, 1000
*ELEMENT, type=B31, elset=elsetSpokes1
1025, 1025, 2025
*ELGEN, elset=elsetSpokes1
1025, 10, 1000, 1000
*ELEMENT, type=B31, elset=elsetSpokes2
1026, 1026, 2026
*ELGEN, elset=elsetSpokes2
1026, 10, 1000, 1000
*ELEMENT, type=B31, elset=elsetSpokes1
1027, 1027, 2027
*ELGEN, elset=elsetSpokes1
1027, 10, 1000, 1000
*ELEMENT, type=B31, elset=elsetSpokes2
1028, 1028, 2028
*ELGEN, elset=elsetSpokes2
1028, 10, 1000, 1000
*ELEMENT, type=B31, elset=elsetSpokes1
1029, 1029, 2029
*ELGEN, elset=elsetSpokes1
1029, 10, 1000, 1000
*ELEMENT, type=B31, elset=elsetSpokes2
1030, 1030, 2030
*ELGEN, elset=elsetSpokes2
1030, 10, 1000, 1000
*ELEMENT, type=B31, elset=elsetSpokes1
1031, 1031, 2031
*ELGEN, elset=elsetSpokes1
1031, 10, 1000, 1000
*ELEMENT, type=B31, elset=elsetSpokes2
1032, 1032, 2032
*ELGEN, elset=elsetSpokes2
1032, 10, 1000, 1000
*ELEMENT, type=B31, elset=elsetSpokes1
1033, 1033, 2033
*ELGEN, elset=elsetSpokes1
1033, 10, 1000, 1000
*ELEMENT, type=B31, elset=elsetSpokes2
1034, 1034, 2034
*ELGEN, elset=elsetSpokes2
1034, 10, 1000, 1000
*ELEMENT, type=B31, elset=elsetSpokes1
1035, 1035, 2035
*ELGEN, elset=elsetSpokes1
1035, 10, 1000, 1000
*ELEMENT, type=B31, elset=elsetSpokes2
1036, 1036, 2036
*ELGEN, elset=elsetSpokes2
1036, 10, 1000, 1000
*ELEMENT, type=B31, elset=elsetSpokes1
1037, 1037, 2037
*ELGEN, elset=elsetSpokes1
1037, 10, 1000, 1000
*ELEMENT, type=B31, elset=elsetSpokes2
1038, 1038, 2038
*ELGEN, elset=elsetSpokes2
1038, 10, 1000, 1000
*ELEMENT, type=B31, elset=elsetSpokes1
1039, 1039, 2039
*ELGEN, elset=elsetSpokes1
1039, 10, 1000, 1000
*ELEMENT, type=B31, elset=elsetSpokes2
1040, 1040, 2040
*ELGEN, elset=elsetSpokes2
1040, 10, 1000, 1000
*ELEMENT, type=B31, elset=elsetSpokes1
1041, 1041, 2041
*ELGEN, elset=elsetSpokes1
1041, 10, 1000, 1000
*ELEMENT, type=B31, elset=elsetSpokes2
1042, 1042, 2042
*ELGEN, elset=elsetSpokes2
1042, 10, 1000, 1000
*ELEMENT, type=B31, elset=elsetSpokes1
1043, 1043, 2043
*ELGEN, elset=elsetSpokes1
1043, 10, 1000, 1000
*ELEMENT, type=B31, elset=elsetSpokes2
1044, 1044, 2044
*ELGEN, elset=elsetSpokes2
1044, 10, 1000, 1000
*ELEMENT, type=B31, elset=elsetSpokes1
1045, 1045, 2045
*ELGEN, elset=elsetSpokes1
1045, 10, 1000, 1000
*ELEMENT, type=B31, elset=elsetSpokes2
1046, 1046, 2046
*ELGEN, elset=elsetSpokes2
1046, 10, 1000, 1000
*ELEMENT, type=B31, elset=elsetSpokes1
1047, 1047, 2047
*ELGEN, elset=elsetSpokes1
1047, 10, 1000, 1000
*ELEMENT, type=B31, elset=elsetSpokes2
1048, 1048, 2048
*ELGEN, elset=elsetSpokes2
1048, 10, 1000, 1000
*ELSET, elset=elsetSpokes
elsetSpokes1, elsetSpokes2
*ELSET, elset=elsetSpokesRef, generate
 1001, 1048, 1
** --------------------------------------------------
** -- Sections
** --------------------------------------------------
*PRE-TENSION SECTION, node=99001, element=1001
*PRE-TENSION SECTION, node=99002, element=1002
*PRE-TENSION SECTION, node=99003, element=1003
*PRE-TENSION SECTION, node=99004, element=1004
*PRE-TENSION SECTION, node=99005, element=1005
*PRE-TENSION SECTION, node=99006, element=1006
*PRE-TENSION SECTION, node=99007, element=1007
*PRE-TENSION SECTION, node=99008, element=1008
*PRE-TENSION SECTION, node=99009, element=1009
*PRE-TENSION SECTION, node=99010, element=1010
*PRE-TENSION SECTION, node=99011, element=1011
*PRE-TENSION SECTION, node=99012, element=1012
*PRE-TENSION SECTION, node=99013, element=1013
*PRE-TENSION SECTION, node=99014, element=1014
*PRE-TENSION SECTION, node=99015, element=1015
*PRE-TENSION SECTION, node=99016, element=1016
*PRE-TENSION SECTION, node=99017, element=1017
*PRE-TENSION SECTION, node=99018, element=1018
*PRE-TENSION SECTION, node=99019, element=1019
*PRE-TENSION SECTION, node=99020, element=1020
** ... 28 like lines cut
*BEAM SECTION, elset=elsetSpokes1, material=steel1, section=CIRC
1.000000e-03
0.,0.,-1.
*BEAM SECTION, elset=elsetSpokes2, material=steel2, section=CIRC
1.000000e-03
0.,0.,-1.
*MATERIAL, name=steel1
*ELASTIC
 2.100000e+11, 0.33
*DENSITY
 8050.0
*DAMPING, alpha=1.000000e+03
*EXPANSION, type=iso
 1.000000e+00
*MATERIAL, name=steel2
*ELASTIC
 2.100000e+11, 0.33
*DENSITY
 8050.0
*DAMPING, alpha=1.000000e+03
*EXPANSION, type=iso
 1.000000e+00
*BEAM GENERAL SECTION, elset=elsetRim, section=GENERAL, density=2700.0
1.0000E-04, 2.8986E-09, 0., 2.8986E-09, 3.0769E-09, 0.0000E+00, 0.0000E+00
0.,0.,-1.
6.9000e+10,    2.6e+10
** --------------------------------------------------
** -- Boundary conditions
** --------------------------------------------------
*BOUNDARY
 nsetHub, ENCASTRE
** --------------------------------------------------
** -- Pre-load spokes
** --------------------------------------------------
*STEP, name=preT, nlgeom=YES
*STATIC
1., 1., 1e-05, 1.
*CLOAD
 99001, 1, 2.229825e+03
 99002, 1, 2.229825e+03
 99003, 1, 2.229825e+03
 99004, 1, 2.229825e+03
 99005, 1, 2.229825e+03
 99006, 1, 2.229825e+03
 99007, 1, 2.229825e+03
 99008, 1, 2.229825e+03
 99009, 1, 2.229825e+03
 99010, 1, 2.229825e+03
 99011, 1, 2.229825e+03
 99012, 1, 2.229825e+03
 99013, 1, 2.229825e+03
 99014, 1, 2.229825e+03
 99015, 1, 2.229825e+03
 99016, 1, 2.229825e+03
 99017, 1, 2.229825e+03
 99018, 1, 2.229825e+03
 99019, 1, 2.229825e+03
 99020, 1, 2.229825e+03
** ... 28 like lines cut
*OUTPUT, field, variable=PRESELECT
*ELEMENT OUTPUT, elset=elsetSpokes
SF
*ELEMENT OUTPUT, elset=elsetRim
SF
*RESTART, write, number interval=1
*END STEP
