*Heading
** Radial collapse with beam spokes
**
** --------------------------------------------------
** -- Nodes
** --------------------------------------------------
*NODE, nset=nsetRim
     1,  0.0000E+00, -3.0100E-01,  3.0000E-05
     2,  2.9503E-02, -2.9955E-01,  2.9329E-05
     3,  5.8722E-02, -2.9522E-01,  2.7361E-05
     4,  8.7376E-02, -2.8804E-01,  2.4228E-05
     5,  1.1519E-01, -2.7809E-01,  2.0137E-05
     6,  1.4189E-01, -2.6546E-01,  1.5355E-05
     7,  1.6723E-01, -2.5027E-01,  1.0191E-05
     8,  1.9095E-01, -2.3268E-01,  4.9670E-06
     9,  2.1284E-01, -2.1284E-01,  1.6941E-21
    10,  2.3268E-01, -1.9095E-01, -4.4262E-06
    11,  2.5027E-01, -1.6723E-01, -8.0790E-06
    12,  2.6546E-01, -1.4189E-01, -1.0794E-05
    13,  2.7809E-01, -1.1519E-01, -1.2483E-05
    14,  2.8804E-01, -8.7376E-02, -1.3142E-05
    15,  2.9522E-01, -5.8722E-02, -1.2844E-05
    16,  2.9955E-01, -2.9503E-02, -1.1731E-05
    17,  3.0100E-01, -1.8431E-17, -1.0000E-05
    18,  2.9955E-01,  2.9503E-02, -7.8852E-06
    19,  2.9522E-01,  5.8722E-02, -5.6340E-06
    20,  2.8804E-01,  8.7376E-02, -3.4874E-06
** ... 44 like lines cut
*NSET, nset=nsetSpokeNip
     1
     3
     5
     7
     9
    11
    13
    15
    17
    19
    21
    23
    25
    27
    29
    31
    33
    35
    37
    39
** ... 12 like lines cut
*NODE, nset=nsetSpokes
  1001,  0.0000E+00, -3.0100E-01,  0.0000E+00
  2001,  0.0000E+00, -2.7290E-01,  4.5000E-03
  3001,  0.0000E+00, -2.4480E-01,  9.0000E-03
  4001,  0.0000E+00, -2.1670E-01,  1.3500E-02
  5001,  0.0000E+00, -1.8860E-01,  1.8000E-02
  6001,  0.0000E+00, -1.6050E-01,  2.2500E-02
  7001,  0.0000E+00, -1.3240E-01,  2.7000E-02
  8001,  0.0000E+00, -1.0430E-01,  3.1500E-02
  9001,  0.0000E+00, -7.6200E-02,  3.6000E-02
 10001,  0.0000E+00, -4.8100E-02,  4.0500E-02
 11001,  0.0000E+00, -2.0000E-02,  4.5000E-02
  1002,  5.8722E-02, -2.9522E-01, -0.0000E+00
  2002,  5.3240E-02, -2.6766E-01, -4.5000E-03
  3002,  4.7758E-02, -2.4010E-01, -9.0000E-03
  4002,  4.2276E-02, -2.1254E-01, -1.3500E-02
  5002,  3.6794E-02, -1.8498E-01, -1.8000E-02
  6002,  3.1312E-02, -1.5742E-01, -2.2500E-02
  7002,  2.5830E-02, -1.2986E-01, -2.7000E-02
  8002,  2.0348E-02, -1.0230E-01, -3.1500E-02
  9002,  1.4866E-02, -7.4736E-02, -3.6000E-02
** ... 332 like lines cut
*NSET, nset=nsetHub
 11001
 11002
 11003
 11004
 11005
 11006
 11007
 11008
 11009
 11010
 11011
 11012
 11013
 11014
 11015
 11016
 11017
 11018
 11019
 11020
** ... 12 like lines cut
*NODE, nset=nsetPreT
 99001,  0.0000E+00,  0.0000E+00,  0.0000E+00
 99002,  0.0000E+00,  0.0000E+00,  0.0000E+00
 99003,  0.0000E+00,  0.0000E+00,  0.0000E+00
 99004,  0.0000E+00,  0.0000E+00,  0.0000E+00
 99005,  0.0000E+00,  0.0000E+00,  0.0000E+00
 99006,  0.0000E+00,  0.0000E+00,  0.0000E+00
 99007,  0.0000E+00,  0.0000E+00,  0.0000E+00
 99008,  0.0000E+00,  0.0000E+00,  0.0000E+00
 99009,  0.0000E+00,  0.0000E+00,  0.0000E+00
 99010,  0.0000E+00,  0.0000E+00,  0.0000E+00
 99011,  0.0000E+00,  0.0000E+00,  0.0000E+00
 99012,  0.0000E+00,  0.0000E+00,  0.0000E+00
 99013,  0.0000E+00,  0.0000E+00,  0.0000E+00
 99014,  0.0000E+00,  0.0000E+00,  0.0000E+00
 99015,  0.0000E+00,  0.0000E+00,  0.0000E+00
 99016,  0.0000E+00,  0.0000E+00,  0.0000E+00
 99017,  0.0000E+00,  0.0000E+00,  0.0000E+00
 99018,  0.0000E+00,  0.0000E+00,  0.0000E+00
 99019,  0.0000E+00,  0.0000E+00,  0.0000E+00
 99020,  0.0000E+00,  0.0000E+00,  0.0000E+00
** ... 12 like lines cut
*NSET, nset=nsetRig1
     1
  1001
*RIGID BODY, ref node=1, tie nset=nsetRig1
*NSET, nset=nsetRig3
     3
  1002
*RIGID BODY, ref node=3, tie nset=nsetRig3
*NSET, nset=nsetRig5
     5
  1003
*RIGID BODY, ref node=5, tie nset=nsetRig5
*NSET, nset=nsetRig7
     7
  1004
*RIGID BODY, ref node=7, tie nset=nsetRig7
*NSET, nset=nsetRig9
     9
  1005
*RIGID BODY, ref node=9, tie nset=nsetRig9
*NSET, nset=nsetRig11
    11
  1006
*RIGID BODY, ref node=11, tie nset=nsetRig11
*NSET, nset=nsetRig13
    13
  1007
*RIGID BODY, ref node=13, tie nset=nsetRig13
*NSET, nset=nsetRig15
    15
  1008
*RIGID BODY, ref node=15, tie nset=nsetRig15
*NSET, nset=nsetRig17
    17
  1009
*RIGID BODY, ref node=17, tie nset=nsetRig17
*NSET, nset=nsetRig19
    19
  1010
*RIGID BODY, ref node=19, tie nset=nsetRig19
*NSET, nset=nsetRig21
    21
  1011
*RIGID BODY, ref node=21, tie nset=nsetRig21
*NSET, nset=nsetRig23
    23
  1012
*RIGID BODY, ref node=23, tie nset=nsetRig23
*NSET, nset=nsetRig25
    25
  1013
*RIGID BODY, ref node=25, tie nset=nsetRig25
*NSET, nset=nsetRig27
    27
  1014
*RIGID BODY, ref node=27, tie nset=nsetRig27
*NSET, nset=nsetRig29
    29
  1015
*RIGID BODY, ref node=29, tie nset=nsetRig29
*NSET, nset=nsetRig31
    31
  1016
*RIGID BODY, ref node=31, tie nset=nsetRig31
*NSET, nset=nsetRig33
    33
  1017
*RIGID BODY, ref node=33, tie nset=nsetRig33
*NSET, nset=nsetRig35
    35
  1018
*RIGID BODY, ref node=35, tie nset=nsetRig35
*NSET, nset=nsetRig37
    37
  1019
*RIGID BODY, ref node=37, tie nset=nsetRig37
*NSET, nset=nsetRig39
    39
  1020
*RIGID BODY, ref node=39, tie nset=nsetRig39
*NSET, nset=nsetRig41
    41
  1021
*RIGID BODY, ref node=41, tie nset=nsetRig41
*NSET, nset=nsetRig43
    43
  1022
*RIGID BODY, ref node=43, tie nset=nsetRig43
*NSET, nset=nsetRig45
    45
  1023
*RIGID BODY, ref node=45, tie nset=nsetRig45
*NSET, nset=nsetRig47
    47
  1024
*RIGID BODY, ref node=47, tie nset=nsetRig47
*NSET, nset=nsetRig49
    49
  1025
*RIGID BODY, ref node=49, tie nset=nsetRig49
*NSET, nset=nsetRig51
    51
  1026
*RIGID BODY, ref node=51, tie nset=nsetRig51
*NSET, nset=nsetRig53
    53
  1027
*RIGID BODY, ref node=53, tie nset=nsetRig53
*NSET, nset=nsetRig55
    55
  1028
*RIGID BODY, ref node=55, tie nset=nsetRig55
*NSET, nset=nsetRig57
    57
  1029
*RIGID BODY, ref node=57, tie nset=nsetRig57
*NSET, nset=nsetRig59
    59
  1030
*RIGID BODY, ref node=59, tie nset=nsetRig59
*NSET, nset=nsetRig61
    61
  1031
*RIGID BODY, ref node=61, tie nset=nsetRig61
*NSET, nset=nsetRig63
    63
  1032
*RIGID BODY, ref node=63, tie nset=nsetRig63
** --------------------------------------------------
** -- Elements
** --------------------------------------------------
*ELEMENT, type=B31, elset=elsetRim
     1,     1,     2
    64,    64,     1
*ELGEN, elset=elsetRim
     1,    63
*ELEMENT, type=B31, elset=elsetSpokes1
1001, 1001, 2001
*ELGEN, elset=elsetSpokes1
1001, 10, 1000, 1000
*ELEMENT, type=B31, elset=elsetSpokes2
1002, 1002, 2002
*ELGEN, elset=elsetSpokes2
1002, 10, 1000, 1000
*ELEMENT, type=B31, elset=elsetSpokes1
1003, 1003, 2003
*ELGEN, elset=elsetSpokes1
1003, 10, 1000, 1000
*ELEMENT, type=B31, elset=elsetSpokes2
1004, 1004, 2004
*ELGEN, elset=elsetSpokes2
1004, 10, 1000, 1000
*ELEMENT, type=B31, elset=elsetSpokes1
1005, 1005, 2005
*ELGEN, elset=elsetSpokes1
1005, 10, 1000, 1000
*ELEMENT, type=B31, elset=elsetSpokes2
1006, 1006, 2006
*ELGEN, elset=elsetSpokes2
1006, 10, 1000, 1000
*ELEMENT, type=B31, elset=elsetSpokes1
1007, 1007, 2007
*ELGEN, elset=elsetSpokes1
1007, 10, 1000, 1000
*ELEMENT, type=B31, elset=elsetSpokes2
1008, 1008, 2008
*ELGEN, elset=elsetSpokes2
1008, 10, 1000, 1000
*ELEMENT, type=B31, elset=elsetSpokes1
1009, 1009, 2009
*ELGEN, elset=elsetSpokes1
1009, 10, 1000, 1000
*ELEMENT, type=B31, elset=elsetSpokes2
1010, 1010, 2010
*ELGEN, elset=elsetSpokes2
1010, 10, 1000, 1000
*ELEMENT, type=B31, elset=elsetSpokes1
1011, 1011, 2011
*ELGEN, elset=elsetSpokes1
1011, 10, 1000, 1000
*ELEMENT, type=B31, elset=elsetSpokes2
1012, 1012, 2012
*ELGEN, elset=elsetSpokes2
1012, 10, 1000, 1000
*ELEMENT, type=B31, elset=elsetSpokes1
1013, 1013, 2013
*ELGEN, elset=elsetSpokes1
1013, 10, 1000, 1000
*ELEMENT, type=B31, elset=elsetSpokes2
1014, 1014, 2014
*ELGEN, elset=elsetSpokes2
1014, 10, 1000, 1000
*ELEMENT, type=B31, elset=elsetSpokes1
1015, 1015, 2015
*ELGEN, elset=elsetSpokes1
1015, 10, 1000, 1000
*ELEMENT, type=B31, elset=elsetSpokes2
1016, 1016, 2016
*ELGEN, elset=elsetSpokes2
1016, 10, 1000, 1000
*ELEMENT, type=B31, elset=elsetSpokes1
1017, 1017, 2017
*ELGEN, elset=elsetSpokes1
1017, 10, 1000, 1000
*ELEMENT, type=B31, elset=elsetSpokes2
1018, 1018, 2018
*ELGEN, elset=elsetSpokes2
1018, 10, 1000, 1000
*ELEMENT, type=B31, elset=elsetSpokes1
1019, 1019, 2019
*ELGEN, elset=elsetSpokes1
1019, 10, 1000, 1000
*ELEMENT, type=B31, elset=elsetSpokes2
1020, 1020, 2020
*ELGEN, elset=elsetSpokes2
1020, 10, 1000, 1000
*ELEMENT, type=B31, elset=elsetSpokes1
1021, 1021, 2021
*ELGEN, elset=elsetSpokes1
1021, 10, 1000, 1000
*ELEMENT, type=B31, elset=elsetSpokes2
1022, 1022, 2022
*ELGEN, elset=elsetSpokes2
1022, 10, 1000, 1000
*ELEMENT, type=B31, elset=elsetSpokes1
1023, 1023, 2023
*ELGEN, elset=elsetSpokes1
1023, 10, 1000, 1000
*ELEMENT, type=B31, elset=elsetSpokes2
1024, 1024, 2024
*ELGEN, elset=elsetSpokes2
1024, 10, 1000, 1000
*ELEMENT, type=B31, elset=elsetSpokes1
1025, 1025, 2025
*ELGEN, elset=elsetSpokes1
1025, 10, 1000, 1000
*ELEMENT, type=B31, elset=elsetSpokes2
1026, 1026, 2026
*ELGEN, elset=elsetSpokes2
1026, 10, 1000, 1000
*ELEMENT, type=B31, elset=elsetSpokes1
1027, 1027, 2027
*ELGEN, elset=elsetSpokes1
1027, 10, 1000, 1000
*ELEMENT, type=B31, elset=elsetSpokes2
1028, 1028, 2028
*ELGEN, elset=elsetSpokes2
1028, 10, 1000, 1000
*ELEMENT, type=B31, elset=elsetSpokes1
1029, 1029, 2029
*ELGEN, elset=elsetSpokes1
1029, 10, 1000, 1000
*ELEMENT, type=B31, elset=elsetSpokes2
1030, 1030, 2030
*ELGEN, elset=elsetSpokes2
1030, 10, 1000, 1000
*ELEMENT, type=B31, elset=elsetSpokes1
1031, 1031, 2031
*ELGEN, elset=elsetSpokes1
1031, 10, 1000, 1000
*ELEMENT, type=B31, elset=elsetSpokes2
1032, 1032, 2032
*ELGEN, elset=elsetSpokes2
1032, 10, 1000, 1000
*ELSET, elset=elsetSpokes
elsetSpokes1, elsetSpokes2
*ELSET, elset=elsetSpokesRef, generate
 1001, 1032, 1
** --------------------------------------------------
** -- Sections
** --------------------------------------------------
*PRE-TENSION SECTION, node=99001, element=1001
*PRE-TENSION SECTION, node=99002, element=1002
*PRE-TENSION SECTION, node=99003, element=1003
*PRE-TENSION SECTION, node=99004, element=1004
*PRE-TENSION SECTION, node=99005, element=1005
*PRE-TENSION SECTION, node=99006, element=1006
*PRE-TENSION SECTION, node=99007, element=1007
*PRE-TENSION SECTION, node=99008, element=1008
*PRE-TENSION SECTION, node=99009, element=1009
*PRE-TENSION SECTION, node=99010, element=1010
*PRE-TENSION SECTION, node=99011, element=1011
*PRE-TENSION SECTION, node=99012, element=1012
*PRE-TENSION SECTION, node=99013, element=1013
*PRE-TENSION SECTION, node=99014, element=1014
*PRE-TENSION SECTION, node=99015, element=1015
*PRE-TENSION SECTION, node=99016, element=1016
*PRE-TENSION SECTION, node=99017, element=1017
*PRE-TENSION SECTION, node=99018, element=1018
*PRE-TENSION SECTION, node=99019, element=1019
*PRE-TENSION SECTION, node=99020, element=1020
** ... 12 like lines cut
*BEAM SECTION, elset=elsetSpokes1, material=steel1, section=CIRC
9.000000e-04
0.,0.,-1.
*BEAM SECTION, elset=elsetSpokes2, material=steel2, section=CIRC
9.000000e-04
0.,0.,-1.
*MATERIAL, name=steel1
*ELASTIC
 2.100000e+11, 0.33
*DENSITY
 8050.0
*DAMPING, alpha=1.000000e+03
*EXPANSION, type=iso
 1.000000e+00
*MATERIAL, name=steel2
*ELASTIC
 2.100000e+11, 0.33
*DENSITY
 8050.0
*DAMPING, alpha=1.000000e+03
*EXPANSION, type=iso
 1.000000e+00
*BEAM GENERAL SECTION, elset=elsetRim, section=GENERAL, density=2700.0
1.0000E-04, 2.8986E-09, 0., 2.8986E-09, 5.7692E-09, 0.0000E+00, 0.0000E+00
0.,0.,-1.
6.9000e+10,    2.6e+10
** --------------------------------------------------
** -- Boundary conditions
** --------------------------------------------------
*BOUNDARY
 nsetHub, ENCASTRE
** --------------------------------------------------
** -- Pre-load spokes
** --------------------------------------------------
*STEP, name=preT, nlgeom=YES
*STATIC
1., 1., 1e-05, 1.
*CLOAD
 99001, 1, 2.436826e+03
 99002, 1, 2.436826e+03
 99003, 1, 2.436826e+03
 99004, 1, 2.436826e+03
 99005, 1, 2.436826e+03
 99006, 1, 2.436826e+03
 99007, 1, 2.436826e+03
 99008, 1, 2.436826e+03
 99009, 1, 2.436826e+03
 99010, 1, 2.436826e+03
 99011, 1, 2.436826e+03
 99012, 1, 2.436826e+03
 99013, 1, 2.436826e+03
 99014, 1, 2.436826e+03
 99015, 1, 2.436826e+03
 99016, 1, 2.436826e+03
 99017, 1, 2.436826e+03
 99018, 1, 2.436826e+03
 99019, 1, 2.436826e+03
 99020, 1, 2.436826e+03
** ... 12 like lines cut
*OUTPUT, field, variable=PRESELECT
*ELEMENT OUTPUT, elset=elsetSpokes
SF
*ELEMENT OUTPUT, elset=elsetRim
SF
*RESTART, write, number interval=1
*END STEP
